Info: SIMULATION PARAMETERS:
Info: TIMESTEP               1
Info: NUMBER OF STEPS        0
Info: STEPS PER CYCLE        10
Info: PERIODIC CELL BASIS 1  72.449 0 0
Info: PERIODIC CELL BASIS 2  0 93.247 0
Info: PERIODIC CELL BASIS 3  0 0 79.185
Info: PERIODIC CELL CENTER   -0.248 -0.156 -0.047
Info: WRAPPING WATERS AROUND PERIODIC BOUNDARIES ON OUTPUT.
Info: WRAPPING ALL CLUSTERS AROUND PERIODIC BOUNDARIES ON OUTPUT.
Info: FIRST LDB TIMESTEP     50
Info: LAST LDB TIMESTEP     -1
Info: HOM BACKGROUND SCALING 1
Info: PME BACKGROUND SCALING 1
Info: MIN ATOMS PER PATCH    40
Info: VELOCITY FILE          ../replicas/rep46/equilibration/eq1.vel
Info: CENTER OF MASS MOVING INITIALLY? NO
Info: DIELECTRIC             1
Info: EXCLUDE                SCALED ONE-FOUR
Info: 1-4 ELECTROSTATICS SCALED BY 0.833333
Info: MODIFIED 1-4 VDW PARAMETERS WILL BE USED
Info: DCD FILENAME           ../replicas/rep46/equilibration/eq2.dcd
Info: DCD FREQUENCY          5000
Info: DCD FIRST STEP         5000
Info: DCD FILE WILL CONTAIN UNIT CELL DATA
Info: XST FILENAME           ../replicas/rep46/equilibration/eq2.xst
Info: XST FREQUENCY          5000
Info: NO VELOCITY DCD OUTPUT
Info: NO FORCE DCD OUTPUT
Info: OUTPUT FILENAME        ../replicas/rep46/equilibration/eq2
Info: RESTART FILENAME       ../replicas/rep46/equilibration/eq2.restart
Info: RESTART FREQUENCY      5000
Info: BINARY RESTART FILES WILL BE USED
Info: SWITCHING ACTIVE
Info: SWITCHING ON           10
Info: SWITCHING OFF          12
Info: PAIRLIST DISTANCE      13.5
Info: PAIRLIST SHRINK RATE   0.01
Info: PAIRLIST GROW RATE     0.01
Info: PAIRLIST TRIGGER       0.3
Info: PAIRLISTS PER CYCLE    2
Info: PAIRLISTS ENABLED
Info: MARGIN                 0.48
Info: HYDROGEN GROUP CUTOFF  2.5
Info: PATCH DIMENSION        16.48
Info: ENERGY OUTPUT STEPS    500
Info: CROSSTERM ENERGY INCLUDED IN DIHEDRAL
Info: TIMING OUTPUT STEPS    5000
Info: PRESSURE OUTPUT STEPS  500
Info: HARMONIC CONSTRAINTS ACTIVE
Info: HARMONIC CONS EXP      2
Info: HARMONIC CONS SCALING  10
Info: LANGEVIN DYNAMICS ACTIVE
Info: LANGEVIN TEMPERATURE   300
Info: LANGEVIN USING BBK INTEGRATOR
Info: LANGEVIN DAMPING COEFFICIENT IS 5 INVERSE PS
Info: LANGEVIN DYNAMICS NOT APPLIED TO HYDROGENS
Info: BERENDSEN PRESSURE COUPLING ACTIVE
Info:     TARGET PRESSURE IS 1 BAR
Info:     COMPRESSIBILITY ESTIMATE IS 4.57e-05 BAR^(-1)
Info:     RELAXATION TIME IS 100 FS
Info:     APPLIED EVERY 2 STEPS
Info:     PRESSURE CONTROL IS GROUP-BASED
Info:       CELL FLUCTUATION IS ISOTROPIC
Info: PARTICLE MESH EWALD (PME) ACTIVE
Info: PME TOLERANCE               1e-06
Info: PME EWALD COEFFICIENT       0.257952
Info: PME INTERPOLATION ORDER     4
Info: PME GRID DIMENSIONS         80 96 80
Info: PME MAXIMUM GRID SPACING    1
Info: FULL ELECTROSTATIC EVALUATION FREQUENCY      2
Info: USING VERLET I (r-RESPA) MTS SCHEME.
Info: C1 SPLITTING OF LONG RANGE ELECTROSTATICS
Info: PLACING ATOMS IN PATCHES BY HYDROGEN GROUPS
Info: RIGID BONDS TO HYDROGEN : WATER
Info:         ERROR TOLERANCE : 1e-05
Info:          MAX ITERATIONS : 100
Info: RIGID WATER USING SETTLE ALGORITHM
Info: RANDOM NUMBER SEED     1503701092
Info: USE HYDROGEN BONDS?    NO
Info: Using AMBER format force field!
Info: AMBER PARM FILE        ../build/complex.top
Info: COORDINATE PDB         ../replicas/rep46/equilibration/eq1.coor
Info: Exclusions in PARM file will be ignored!
Info: SCNB (VDW SCALING)     2
Info: USING ARITHMETIC MEAN TO COMBINE L-J SIGMA PARAMETERS
Info: SUMMARY OF PARAMETERS:
Info: 71 BONDS
Info: 145 ANGLES
Info: 76 DIHEDRAL
Info: 0 IMPROPER
Info: 0 CROSSTERM
Info: 0 VDW
Info: 190 VDW_PAIRS
Info: 0 NBTHOLE_PAIRS
Info: STRUCTURE SUMMARY:
Info: 49394 ATOMS
Info: 49448 BONDS
Info: 8698 ANGLES
Info: 18780 DIHEDRALS
Info: 0 IMPROPERS
Info: 0 CROSSTERMS
Info: 0 EXCLUSIONS
Info: 2336 CONSTRAINTS
Info: 44667 RIGID BONDS
Info: 103515 DEGREES OF FREEDOM
Info: 17225 HYDROGEN GROUPS
Info: 4 ATOMS IN LARGEST HYDROGEN GROUP
Info: 17225 MIGRATION GROUPS
Info: 4 ATOMS IN LARGEST MIGRATION GROUP
Info: TOTAL MASS = 301478 amu
Info: TOTAL CHARGE = 1.00115e-05 e
Info: MASS DENSITY = 0.935846 g/cm^3
Info: ATOM DENSITY = 0.0923345 atoms/A^3
Info: ADDED 70656 IMPLICIT EXCLUSIONS
Info: NONBONDED TABLE R-SQUARED SPACING: 0.0625
Info: NONBONDED TABLE SIZE: 769 POINTS
Info: REMOVING COM VELOCITY 0.0128066 0.0149639 -0.0270949
TCL: Running for 5000 steps
ETITLE: TS BOND ANGLE DIHED IMPRP ELECT VDW BOUNDARY MISC KINETIC TOTAL TEMP POTENTIAL TOTAL3 TEMPAVG PRESSURE GPRESSURE VOLUME PRESSAVG GPRESSAVG
ENERGY: 0 392.8475 1237.0619 2914.4879 0.0000 -212791.9150 29551.4898 0.0000 0.0000 10012.9954 -168683.0326 97.3534 -178696.0280 -168673.4199 97.3534 -2346.8702 -2443.8267 534946.2959 -2346.8702 -2443.8267
ENERGY: 1000 1189.5287 1929.3766 3102.6469 0.0000 -193850.3523 26771.5953 769.4680 0.0000 24105.1218 -135982.6150 234.3670 -160087.7368 -135962.2106 218.3409 48.4714 3.3714 521214.9385 -23.8947 -24.4730
ENERGY: 2000 1472.2168 2131.1560 3161.4673 0.0000 -184117.4821 23480.9732 800.6885 0.0000 28127.7256 -124943.2547 273.4776 -153070.9804 -124909.9333 265.4852 -107.5224 -14.0897 514439.8935 -35.8473 -35.6049
ENERGY: 3000 1604.7603 2235.6116 3155.2741 0.0000 -179194.6482 21622.9043 810.4803 0.0000 29378.8504 -120386.7670 285.6419 -149765.6175 -120354.1144 285.1598 -130.4929 -39.8808 511870.2351 -9.1626 -8.9244
ENERGY: 4000 1535.8096 2290.8392 3172.4083 0.0000 -176814.2676 20721.0712 774.1146 0.0000 30158.4053 -118161.6195 293.2213 -148320.0248 -118121.4846 293.2580 25.7686 -9.5005 508367.0315 -11.1125 -11.0178
ENERGY: 5000 1584.6346 2236.3158 3173.2485 0.0000 -176375.2467 20389.8211 791.1974 0.0000 30513.4032 -117686.6261 296.6728 -148200.0294 -117640.1245 295.7667 -52.3785 17.4020 505251.5734 -9.5831 -9.3070
TCL: Setting parameter constraintScaling to 5.0
TCL: Running for 5000 steps
ETITLE: TS BOND ANGLE DIHED IMPRP ELECT VDW BOUNDARY MISC KINETIC TOTAL TEMP POTENTIAL TOTAL3 TEMPAVG PRESSURE GPRESSURE VOLUME PRESSAVG GPRESSAVG
ENERGY: 5000 1584.6346 2236.3158 3173.2485 0.0000 -176375.2467 20389.8211 395.5987 0.0000 30511.3272 -118084.3008 296.6526 -148595.6281 -118042.1076 296.6526 -98.3854 -27.9186 505251.5734 -98.3854 -27.9186
ENERGY: 6000 1600.0374 2265.6448 3127.6308 0.0000 -176335.8823 20549.9527 631.9848 0.0000 30718.1774 -117442.4543 298.6638 -148160.6317 -117400.9354 297.1847 -103.4703 -17.8957 504044.9335 -3.4600 -2.9527
ENERGY: 7000 1562.1062 2285.0658 3186.1019 0.0000 -175388.1595 19978.6090 626.6010 0.0000 30713.3366 -117036.3390 298.6167 -147749.6756 -116989.2691 298.4855 -60.1733 -41.5007 502376.3524 -6.4223 -6.3918
ENERGY: 8000 1549.0152 2294.0769 3157.4924 0.0000 -175412.9885 19937.3755 631.1631 0.0000 30735.2322 -117108.6331 298.8296 -147843.8654 -117051.6801 298.9828 -15.4378 35.0133 501464.0606 -1.4850 -1.5666
ENERGY: 9000 1604.1094 2273.1569 3159.4337 0.0000 -175824.4448 20190.3827 628.8075 0.0000 30630.7828 -117337.7717 297.8141 -147968.5546 -117291.0530 298.8510 -116.8276 47.0787 499256.2472 -19.7000 -19.1678
ENERGY: 10000 1582.3978 2229.7528 3162.8602 0.0000 -175328.6227 19782.3797 631.2351 0.0000 30827.4417 -117112.5555 299.7261 -147939.9971 -117070.2656 299.4683 -91.7616 -15.7899 499763.4922 -6.2373 -5.8956
TCL: Setting parameter constraintScaling to 2.5
TCL: Running for 5000 steps
ETITLE: TS BOND ANGLE DIHED IMPRP ELECT VDW BOUNDARY MISC KINETIC TOTAL TEMP POTENTIAL TOTAL3 TEMPAVG PRESSURE GPRESSURE VOLUME PRESSAVG GPRESSAVG
ENERGY: 10000 1582.3978 2229.7528 3162.8602 0.0000 -175328.6227 19782.3797 315.6175 0.0000 30825.4103 -117430.2044 299.7064 -148255.6147 -117385.6165 299.7064 -214.4854 -146.0103 499763.4922 -214.4854 -146.0103
ENERGY: 11000 1598.7648 2345.8680 3196.7106 0.0000 -175386.6292 19966.9636 496.2764 0.0000 30564.2627 -117217.7830 297.1673 -147782.0457 -117176.3077 298.8798 -20.3108 2.4615 498763.0868 13.8865 13.7339
ENERGY: 12000 1594.8527 2269.9336 3176.3889 0.0000 -175596.8481 19983.4026 500.4610 0.0000 30937.2458 -117134.5634 300.7937 -148071.8091 -117084.2822 299.3261 -150.8692 -54.6165 498721.7251 -4.5411 -4.0036
ENERGY: 13000 1580.7791 2332.3126 3216.8057 0.0000 -175933.2426 20426.6329 536.6691 0.0000 30622.2775 -117217.7657 297.7314 -147840.0432 -117172.3457 298.8239 66.4132 0.5938 500487.4736 10.5250 9.9159
ENERGY: 14000 1649.4287 2307.5242 3188.0961 0.0000 -175808.8084 20212.8731 494.5974 0.0000 30677.9174 -117278.3714 298.2723 -147956.2889 -117224.9986 298.6047 61.3504 58.0126 500906.7103 -0.0663 -0.1557
ENERGY: 15000 1588.9913 2353.2483 3203.8745 0.0000 -175772.0325 20114.6945 514.1653 0.0000 30808.3105 -117188.7481 299.5401 -147997.0586 -117129.9674 299.2668 -32.2387 -54.4142 500140.7435 -9.7651 -10.0365
TCL: Setting parameter constraintScaling to 1.25
TCL: Running for 5000 steps
ETITLE: TS BOND ANGLE DIHED IMPRP ELECT VDW BOUNDARY MISC KINETIC TOTAL TEMP POTENTIAL TOTAL3 TEMPAVG PRESSURE GPRESSURE VOLUME PRESSAVG GPRESSAVG
ENERGY: 15000 1588.9913 2353.2483 3203.8745 0.0000 -175772.0325 20114.6945 257.0827 0.0000 30806.2390 -117447.9023 299.5200 -148254.1413 -117402.5373 299.5200 -83.6787 -108.5716 500140.7435 -83.6787 -108.5716
ENERGY: 16000 1629.4658 2337.1070 3181.6766 0.0000 -175714.9958 20110.4845 406.4504 0.0000 30812.4889 -117237.3227 299.5807 -148049.8116 -117192.9558 299.1652 -112.5080 -20.3543 500092.9127 0.6676 0.7967
ENERGY: 17000 1571.3370 2372.5675 3203.5469 0.0000 -175669.9182 20074.5373 403.7178 0.0000 30886.3693 -117157.8424 300.2990 -148044.2116 -117100.6134 299.4851 -25.1064 82.0984 501402.0788 7.7756 8.0561
ENERGY: 18000 1641.3516 2369.0939 3225.5765 0.0000 -175525.0540 20018.2164 396.8186 0.0000 30872.2899 -117001.7072 300.1622 -147873.9971 -116956.3347 301.3679 -135.9446 -66.7606 500162.3786 -1.8863 -2.4823
ENERGY: 19000 1627.3563 2346.8585 3172.8350 0.0000 -175540.3566 19951.8258 425.0150 0.0000 30833.0827 -117183.3832 299.7810 -148016.4659 -117137.4583 300.4684 -39.3695 41.6422 499197.7136 -6.6044 -6.6739
ENERGY: 20000 1641.4896 2300.7223 3156.5487 0.0000 -175918.6937 20131.7703 416.3369 0.0000 30875.4045 -117396.4213 300.1924 -148271.8258 -117358.1890 298.8236 -139.6031 -86.9698 498269.7412 -1.1671 -1.0569
TCL: Setting parameter constraintScaling to 0.625
TCL: Running for 5000 steps
ETITLE: TS BOND ANGLE DIHED IMPRP ELECT VDW BOUNDARY MISC KINETIC TOTAL TEMP POTENTIAL TOTAL3 TEMPAVG PRESSURE GPRESSURE VOLUME PRESSAVG GPRESSAVG
ENERGY: 20000 1641.4896 2300.7223 3156.5487 0.0000 -175918.6937 20131.7703 208.1684 0.0000 30873.3786 -117606.6156 300.1727 -148479.9943 -117562.4743 300.1727 -169.4541 -124.0643 498269.7412 -169.4541 -124.0643
ENERGY: 21000 1585.2918 2382.6929 3223.5720 0.0000 -175561.6189 19914.4918 298.7161 0.0000 30730.8383 -117426.0162 298.7869 -148156.8544 -117378.9246 299.1821 -53.1539 9.5347 497785.6369 -2.6076 -2.3258
ENERGY: 22000 1573.4898 2408.3954 3220.5435 0.0000 -175646.3297 20207.7903 305.1007 0.0000 30881.1707 -117049.8393 300.2485 -147931.0100 -116993.0080 300.5106 -3.4135 123.6099 499164.6615 12.0826 11.9937
ENERGY: 23000 1629.4582 2348.6890 3173.5624 0.0000 -175536.7194 20170.5612 323.3964 0.0000 30754.0310 -117137.0213 299.0124 -147891.0523 -117096.4860 299.4874 -78.3302 -54.2365 501038.0347 14.1885 14.1250
ENERGY: 24000 1614.5123 2343.3577 3216.7864 0.0000 -175434.9368 19943.2943 311.7277 0.0000 30763.9914 -117241.2670 299.1092 -148005.2585 -117197.4198 298.7900 -46.1928 -36.1490 500211.0897 -3.3236 -3.1408
ENERGY: 25000 1620.4619 2415.2476 3222.5332 0.0000 -175881.2520 20238.0420 338.5093 0.0000 30722.7526 -117323.7054 298.7083 -148046.4580 -117286.1273 299.7691 51.5495 48.6305 497730.8787 -12.7984 -12.7506
TCL: Setting parameter constraintScaling to 0.3125
TCL: Running for 5000 steps
ETITLE: TS BOND ANGLE DIHED IMPRP ELECT VDW BOUNDARY MISC KINETIC TOTAL TEMP POTENTIAL TOTAL3 TEMPAVG PRESSURE GPRESSURE VOLUME PRESSAVG GPRESSAVG
ENERGY: 25000 1620.4619 2415.2476 3222.5332 0.0000 -175881.2520 20238.0420 169.2546 0.0000 30720.6815 -117495.0312 298.6881 -148215.7127 -117449.7725 298.6881 27.5021 29.6671 497730.8787 27.5021 29.6671
ENERGY: 26000 1653.4159 2422.7445 3197.0470 0.0000 -174989.1848 19894.0740 243.9280 0.0000 30843.9760 -116733.9994 299.8869 -147577.9755 -116693.8540 300.9827 127.6341 75.8787 498866.8802 5.1111 4.9693
ENERGY: 27000 1653.4457 2416.1343 3249.8971 0.0000 -175860.0577 20197.6141 240.0863 0.0000 30920.9787 -117181.9016 300.6355 -148102.8802 -117135.0134 300.9827 -14.5595 -58.6031 498041.2184 -3.6792 -3.1843
ENERGY: 28000 1639.0392 2396.1039 3197.7847 0.0000 -175738.0357 20208.9223 237.3414 0.0000 30873.4593 -117185.3849 300.1735 -148058.8442 -117138.4955 299.5162 -67.7875 -1.6211 499967.6475 9.3929 8.9232
ENERGY: 29000 1581.2580 2408.8981 3192.8495 0.0000 -175880.0505 19952.1393 242.8056 0.0000 30838.6296 -117663.4705 299.8349 -148502.1001 -117624.2595 299.7218 -53.3808 -5.4949 498050.7310 -4.8804 -4.9395
ENERGY: 30000 1656.1376 2445.3102 3223.9787 0.0000 -175797.1330 20066.8414 249.8197 0.0000 30677.0175 -117478.0279 298.2636 -148155.0454 -117437.7826 298.8778 -88.0474 -54.1949 496869.7171 -19.1453 -18.7357
TCL: Setting parameter constraintScaling to 0.15625
TCL: Running for 5000 steps
ETITLE: TS BOND ANGLE DIHED IMPRP ELECT VDW BOUNDARY MISC KINETIC TOTAL TEMP POTENTIAL TOTAL3 TEMPAVG PRESSURE GPRESSURE VOLUME PRESSAVG GPRESSAVG
ENERGY: 30000 1656.1376 2445.3102 3223.9787 0.0000 -175797.1330 20066.8414 124.9099 0.0000 30674.9588 -117604.9964 298.2436 -148279.9552 -117567.4783 298.2436 -87.0592 -55.3625 496869.7171 -87.0592 -55.3625
ENERGY: 31000 1649.8692 2428.1436 3250.2360 0.0000 -176350.0993 20255.5211 177.4937 0.0000 30732.4891 -117856.3467 298.8029 -148588.8358 -117811.8811 298.7302 -46.7997 34.0688 498129.3789 7.6490 7.4277
ENERGY: 32000 1662.2981 2405.8117 3221.7814 0.0000 -176603.8945 20476.6127 197.7324 0.0000 30796.2071 -117843.4511 299.4224 -148639.6582 -117796.6539 298.9404 -38.6065 -20.5972 499040.7287 -6.6817 -6.6126
ENERGY: 33000 1713.7628 2398.2945 3247.5759 0.0000 -176306.4673 20211.0068 203.1157 0.0000 30862.2505 -117670.4612 300.0645 -148532.7117 -117623.3139 298.5742 -51.6767 -8.2562 497824.6190 -8.8868 -9.0504
ENERGY: 34000 1610.8846 2418.3475 3192.9816 0.0000 -175759.6088 19914.5001 207.2295 0.0000 30722.8539 -117692.8114 298.7092 -148415.6653 -117643.2879 298.7605 -112.3975 -69.0296 497385.6011 0.4570 0.8238
ENERGY: 35000 1637.8677 2408.0790 3206.5844 0.0000 -176111.3886 20041.3925 207.8199 0.0000 30776.3670 -117833.2782 299.2295 -148609.6452 -117796.4361 299.2685 52.7947 1.1121 496800.0650 -2.6916 -2.7892
TCL: Setting parameter constraintScaling to 0.078125
TCL: Running for 5000 steps
ETITLE: TS BOND ANGLE DIHED IMPRP ELECT VDW BOUNDARY MISC KINETIC TOTAL TEMP POTENTIAL TOTAL3 TEMPAVG PRESSURE GPRESSURE VOLUME PRESSAVG GPRESSAVG
ENERGY: 35000 1637.8677 2408.0790 3206.5844 0.0000 -176111.3886 20041.3925 103.9100 0.0000 30774.3131 -117939.2420 299.2096 -148713.5552 -117896.3743 299.2096 29.1541 -25.0751 496800.0650 29.1541 -25.0751
ENERGY: 36000 1708.9741 2330.5569 3217.5649 0.0000 -175834.2569 20039.2861 155.6635 0.0000 30772.5369 -117609.6743 299.1923 -148382.2113 -117559.1605 299.0608 -108.6646 -90.3806 497495.2598 5.5738 5.5315
ENERGY: 37000 1621.4433 2388.1495 3217.3569 0.0000 -175855.2518 20037.0306 150.1840 0.0000 30912.5605 -117528.5268 300.5537 -148441.0873 -117475.6754 299.6734 56.3809 31.9791 496463.5181 5.1338 5.3797
ENERGY: 38000 1592.9155 2418.3162 3205.3869 0.0000 -175731.3984 19972.9719 154.6160 0.0000 30951.9155 -117435.2763 300.9363 -148387.1919 -117384.4579 300.7280 51.9718 34.1989 495955.5966 -3.9756 -4.0106
ENERGY: 39000 1588.8604 2386.5841 3223.1047 0.0000 -175695.0282 20083.1552 146.0018 0.0000 30937.7138 -117329.6082 300.7983 -148267.3220 -117275.4139 300.2567 -100.2470 -37.1939 496398.9165 0.0062 0.1807
ENERGY: 40000 1628.2201 2406.1179 3211.9029 0.0000 -175801.1984 19920.9553 154.0330 0.0000 30880.9211 -117599.0481 300.2461 -148479.9692 -117550.1106 300.4910 -32.3205 -19.4586 495753.4491 2.9561 3.1225
TCL: Setting parameter constraintScaling to 0.0390625
TCL: Running for 5000 steps
ETITLE: TS BOND ANGLE DIHED IMPRP ELECT VDW BOUNDARY MISC KINETIC TOTAL TEMP POTENTIAL TOTAL3 TEMPAVG PRESSURE GPRESSURE VOLUME PRESSAVG GPRESSAVG
ENERGY: 40000 1628.2201 2406.1179 3211.9029 0.0000 -175801.1984 19920.9553 77.0165 0.0000 30878.8687 -117678.1170 300.2261 -148556.9857 -117636.5026 300.2261 -42.1583 -32.3738 495753.4491 -42.1583 -32.3738
ENERGY: 41000 1676.5056 2418.9222 3196.6701 0.0000 -175996.5938 20244.1869 108.1333 0.0000 30739.7473 -117612.4284 298.8735 -148352.1757 -117563.0138 300.0141 37.9867 -10.6376 497733.2359 2.9382 3.2296
ENERGY: 42000 1635.4070 2400.6302 3250.2335 0.0000 -176180.0622 20275.6481 112.5422 0.0000 30604.5027 -117901.0985 297.5585 -148505.6012 -117859.0985 299.0086 8.4906 84.2020 496678.7471 -4.2862 -4.1717
ENERGY: 43000 1599.6294 2385.5563 3195.4423 0.0000 -175599.0825 19876.6071 124.4035 0.0000 30849.9870 -117567.4569 299.9453 -148417.4439 -117514.3935 299.9664 -59.0550 -11.1871 496714.2614 3.7420 4.3985
ENERGY: 44000 1539.0576 2427.2669 3200.8185 0.0000 -175713.0715 19915.7234 128.2213 0.0000 30849.6192 -117652.3647 299.9417 -148501.9839 -117601.3658 300.6756 -53.6984 -62.5640 496432.9314 0.7950 0.8831
ENERGY: 45000 1621.4004 2377.4872 3199.8038 0.0000 -175729.8834 20018.8257 123.5823 0.0000 30813.4291 -117575.3548 299.5899 -148388.7839 -117541.8002 299.3447 -42.0305 -61.4716 497470.8290 7.0655 7.1692
TCL: Setting parameter constraintScaling to 0.01953125
TCL: Running for 5000 steps
ETITLE: TS BOND ANGLE DIHED IMPRP ELECT VDW BOUNDARY MISC KINETIC TOTAL TEMP POTENTIAL TOTAL3 TEMPAVG PRESSURE GPRESSURE VOLUME PRESSAVG GPRESSAVG
ENERGY: 45000 1621.4004 2377.4872 3199.8038 0.0000 -175729.8834 20018.8257 61.7912 0.0000 30811.3901 -117639.1850 299.5700 -148450.5751 -117596.3041 299.5700 -63.0973 -81.5694 497470.8290 -63.0973 -81.5694
ENERGY: 46000 1599.1339 2407.4405 3189.5464 0.0000 -175731.9051 20067.0679 81.5081 0.0000 30751.0683 -117636.1400 298.9836 -148387.2083 -117577.8841 299.0684 34.3881 123.6233 498934.5565 -0.9629 -0.7058
ENERGY: 47000 1663.1552 2382.8020 3211.7758 0.0000 -175971.4361 20154.2499 85.6389 0.0000 30832.5543 -117641.2601 299.7758 -148473.8144 -117592.9145 300.2474 -36.0743 48.7322 498958.3746 0.7206 0.7440
ENERGY: 48000 1679.5823 2441.1830 3197.1990 0.0000 -176187.7072 20182.1818 81.8779 0.0000 30967.2490 -117638.4341 301.0854 -148605.6831 -117594.3344 299.4891 -118.7700 -16.6205 497717.6161 0.1456 0.0329
ENERGY: 49000 1613.8354 2370.2160 3181.3040 0.0000 -175614.1130 20012.2762 85.9329 0.0000 30790.2999 -117560.2486 299.3650 -148350.5486 -117512.7476 299.8040 -26.2175 -64.0099 497635.3436 1.5455 1.8884
ENERGY: 50000 1564.8517 2375.0624 3204.7558 0.0000 -175425.9825 19723.0215 83.3450 0.0000 30846.6805 -117628.2654 299.9132 -148474.9459 -117579.9285 299.1787 -17.5546 25.7518 495909.0261 -3.8184 -4.1391
TCL: Setting parameter constraintScaling to 0
TCL: Running for 5000 steps
ETITLE: TS BOND ANGLE DIHED IMPRP ELECT VDW BOUNDARY MISC KINETIC TOTAL TEMP POTENTIAL TOTAL3 TEMPAVG PRESSURE GPRESSURE VOLUME PRESSAVG GPRESSAVG
ENERGY: 50000 1564.8517 2375.0624 3204.7558 0.0000 -175425.9825 19723.0215 0.0000 0.0000 30844.6309 -117713.6600 299.8932 -148558.2909 -117668.7024 299.8932 -28.6704 5.6041 495909.0261 -28.6704 5.6041
ENERGY: 51000 1686.5700 2402.6991 3222.0170 0.0000 -175590.8238 20050.2563 0.0000 0.0000 30611.1920 -117618.0893 297.6236 -148229.2814 -117573.9721 300.0308 -43.9182 12.0315 496654.0305 1.8213 2.3103
ENERGY: 52000 1646.2100 2378.6026 3238.1560 0.0000 -175971.2656 19992.9980 0.0000 0.0000 31054.0033 -117661.2956 301.9289 -148715.2989 -117616.2388 299.6716 -0.9987 -52.8438 496505.8731 -6.4250 -6.5823
ENERGY: 53000 1625.5691 2384.5875 3224.9891 0.0000 -175558.1009 19820.5315 0.0000 0.0000 30675.7618 -117826.6618 298.2514 -148502.4237 -117783.0002 299.4749 -30.5701 -12.0218 496036.5415 12.4453 12.9443
ENERGY: 54000 1660.9758 2341.3275 3221.1663 0.0000 -176539.8766 20106.5162 0.0000 0.0000 31153.9731 -118055.9178 302.9009 -149209.8909 -118006.2363 299.7842 -90.1133 -3.4158 494338.3798 -12.7354 -12.4356
ENERGY: 55000 1669.7440 2372.1857 3191.5542 0.0000 -176266.7798 20078.4089 0.0000 0.0000 30692.1746 -118262.7124 298.4110 -148954.8870 -118207.3570 298.8920 -25.7955 -52.5521 495133.8912 9.1309 9.0746
