Info: SIMULATION PARAMETERS:
Info: TIMESTEP               1
Info: NUMBER OF STEPS        0
Info: STEPS PER CYCLE        10
Info: PERIODIC CELL BASIS 1  72.449 0 0
Info: PERIODIC CELL BASIS 2  0 93.247 0
Info: PERIODIC CELL BASIS 3  0 0 79.185
Info: PERIODIC CELL CENTER   -0.248 -0.156 -0.047
Info: WRAPPING WATERS AROUND PERIODIC BOUNDARIES ON OUTPUT.
Info: WRAPPING ALL CLUSTERS AROUND PERIODIC BOUNDARIES ON OUTPUT.
Info: FIRST LDB TIMESTEP     50
Info: LAST LDB TIMESTEP     -1
Info: HOM BACKGROUND SCALING 1
Info: PME BACKGROUND SCALING 1
Info: MIN ATOMS PER PATCH    40
Info: VELOCITY FILE          ../replicas/rep12/equilibration/eq1.vel
Info: CENTER OF MASS MOVING INITIALLY? NO
Info: DIELECTRIC             1
Info: EXCLUDE                SCALED ONE-FOUR
Info: 1-4 ELECTROSTATICS SCALED BY 0.833333
Info: MODIFIED 1-4 VDW PARAMETERS WILL BE USED
Info: DCD FILENAME           ../replicas/rep12/equilibration/eq2.dcd
Info: DCD FREQUENCY          5000
Info: DCD FIRST STEP         5000
Info: DCD FILE WILL CONTAIN UNIT CELL DATA
Info: XST FILENAME           ../replicas/rep12/equilibration/eq2.xst
Info: XST FREQUENCY          5000
Info: NO VELOCITY DCD OUTPUT
Info: NO FORCE DCD OUTPUT
Info: OUTPUT FILENAME        ../replicas/rep12/equilibration/eq2
Info: RESTART FILENAME       ../replicas/rep12/equilibration/eq2.restart
Info: RESTART FREQUENCY      5000
Info: BINARY RESTART FILES WILL BE USED
Info: SWITCHING ACTIVE
Info: SWITCHING ON           10
Info: SWITCHING OFF          12
Info: PAIRLIST DISTANCE      13.5
Info: PAIRLIST SHRINK RATE   0.01
Info: PAIRLIST GROW RATE     0.01
Info: PAIRLIST TRIGGER       0.3
Info: PAIRLISTS PER CYCLE    2
Info: PAIRLISTS ENABLED
Info: MARGIN                 0.48
Info: HYDROGEN GROUP CUTOFF  2.5
Info: PATCH DIMENSION        16.48
Info: ENERGY OUTPUT STEPS    500
Info: CROSSTERM ENERGY INCLUDED IN DIHEDRAL
Info: TIMING OUTPUT STEPS    5000
Info: PRESSURE OUTPUT STEPS  500
Info: HARMONIC CONSTRAINTS ACTIVE
Info: HARMONIC CONS EXP      2
Info: HARMONIC CONS SCALING  10
Info: LANGEVIN DYNAMICS ACTIVE
Info: LANGEVIN TEMPERATURE   300
Info: LANGEVIN USING BBK INTEGRATOR
Info: LANGEVIN DAMPING COEFFICIENT IS 5 INVERSE PS
Info: LANGEVIN DYNAMICS NOT APPLIED TO HYDROGENS
Info: BERENDSEN PRESSURE COUPLING ACTIVE
Info:     TARGET PRESSURE IS 1 BAR
Info:     COMPRESSIBILITY ESTIMATE IS 4.57e-05 BAR^(-1)
Info:     RELAXATION TIME IS 100 FS
Info:     APPLIED EVERY 2 STEPS
Info:     PRESSURE CONTROL IS GROUP-BASED
Info:       CELL FLUCTUATION IS ISOTROPIC
Info: PARTICLE MESH EWALD (PME) ACTIVE
Info: PME TOLERANCE               1e-06
Info: PME EWALD COEFFICIENT       0.257952
Info: PME INTERPOLATION ORDER     4
Info: PME GRID DIMENSIONS         80 96 80
Info: PME MAXIMUM GRID SPACING    1
Info: FULL ELECTROSTATIC EVALUATION FREQUENCY      2
Info: USING VERLET I (r-RESPA) MTS SCHEME.
Info: C1 SPLITTING OF LONG RANGE ELECTROSTATICS
Info: PLACING ATOMS IN PATCHES BY HYDROGEN GROUPS
Info: RIGID BONDS TO HYDROGEN : WATER
Info:         ERROR TOLERANCE : 1e-05
Info:          MAX ITERATIONS : 100
Info: RIGID WATER USING SETTLE ALGORITHM
Info: RANDOM NUMBER SEED     1503275408
Info: USE HYDROGEN BONDS?    NO
Info: Using AMBER format force field!
Info: AMBER PARM FILE        ../build/complex.top
Info: COORDINATE PDB         ../replicas/rep12/equilibration/eq1.coor
Info: Exclusions in PARM file will be ignored!
Info: SCNB (VDW SCALING)     2
Info: USING ARITHMETIC MEAN TO COMBINE L-J SIGMA PARAMETERS
Info: SUMMARY OF PARAMETERS:
Info: 71 BONDS
Info: 145 ANGLES
Info: 76 DIHEDRAL
Info: 0 IMPROPER
Info: 0 CROSSTERM
Info: 0 VDW
Info: 190 VDW_PAIRS
Info: 0 NBTHOLE_PAIRS
Info: STRUCTURE SUMMARY:
Info: 49394 ATOMS
Info: 49448 BONDS
Info: 8698 ANGLES
Info: 18780 DIHEDRALS
Info: 0 IMPROPERS
Info: 0 CROSSTERMS
Info: 0 EXCLUSIONS
Info: 2336 CONSTRAINTS
Info: 44667 RIGID BONDS
Info: 103515 DEGREES OF FREEDOM
Info: 17225 HYDROGEN GROUPS
Info: 4 ATOMS IN LARGEST HYDROGEN GROUP
Info: 17225 MIGRATION GROUPS
Info: 4 ATOMS IN LARGEST MIGRATION GROUP
Info: TOTAL MASS = 301478 amu
Info: TOTAL CHARGE = 1.00115e-05 e
Info: MASS DENSITY = 0.935846 g/cm^3
Info: ATOM DENSITY = 0.0923345 atoms/A^3
Info: ADDED 70656 IMPLICIT EXCLUSIONS
Info: NONBONDED TABLE R-SQUARED SPACING: 0.0625
Info: NONBONDED TABLE SIZE: 769 POINTS
Info: REMOVING COM VELOCITY -0.00253369 -0.0247179 -0.0178873
TCL: Running for 5000 steps
ETITLE: TS BOND ANGLE DIHED IMPRP ELECT VDW BOUNDARY MISC KINETIC TOTAL TEMP POTENTIAL TOTAL3 TEMPAVG PRESSURE GPRESSURE VOLUME PRESSAVG GPRESSAVG
ENERGY: 0 397.8881 1225.4339 2920.6723 0.0000 -212513.9230 29394.4671 0.0000 0.0000 10061.8744 -168513.5873 97.8286 -178575.4617 -168503.9106 97.8286 -2441.1166 -2543.4930 534946.2959 -2441.1166 -2543.4930
ENERGY: 1000 1262.3974 2008.1100 3115.0035 0.0000 -194027.1449 26700.8725 774.1173 0.0000 24263.0975 -135903.5466 235.9029 -160166.6441 -135879.7350 218.5906 -25.4522 -26.4813 522360.8240 -14.3765 -14.0814
ENERGY: 2000 1428.5820 2164.4379 3129.2962 0.0000 -184576.9090 23581.1448 799.7666 0.0000 27724.1009 -125749.5804 269.5532 -153473.6814 -125702.9726 263.8935 3.4944 -26.0777 516793.3250 -22.4063 -22.7558
ENERGY: 3000 1517.1701 2195.1800 3125.0216 0.0000 -179180.8874 21390.6850 802.3342 0.0000 29475.0697 -120675.4269 286.5774 -150150.4966 -120637.9577 283.3968 -69.0346 -14.2891 511128.9042 -23.6009 -22.9865
ENERGY: 4000 1545.4309 2287.7007 3132.1122 0.0000 -177163.1507 21106.1595 803.0024 0.0000 30094.1928 -118194.5522 292.5970 -148288.7450 -118155.7303 292.9098 -82.4481 -29.3790 506501.2384 -21.5393 -21.5287
ENERGY: 5000 1570.5091 2219.0880 3149.0005 0.0000 -176346.7750 20429.3446 774.1451 0.0000 30410.3129 -117794.3748 295.6705 -148204.6877 -117748.0613 295.2597 -66.4635 -30.9251 505277.3441 -8.3543 -8.1763
TCL: Setting parameter constraintScaling to 5.0
TCL: Running for 5000 steps
ETITLE: TS BOND ANGLE DIHED IMPRP ELECT VDW BOUNDARY MISC KINETIC TOTAL TEMP POTENTIAL TOTAL3 TEMPAVG PRESSURE GPRESSURE VOLUME PRESSAVG GPRESSAVG
ENERGY: 5000 1570.5091 2219.0880 3149.0005 0.0000 -176346.7751 20429.3446 387.0725 0.0000 30408.2680 -118183.4923 295.6506 -148591.7603 -118142.8827 295.6506 -199.7092 -158.0522 505277.3441 -199.7092 -158.0522
ENERGY: 6000 1653.2948 2253.0733 3172.3432 0.0000 -175864.8177 20239.6290 632.6807 0.0000 30605.8577 -117307.9390 297.5717 -147913.7967 -117258.1399 297.3168 -14.0890 -43.6050 505410.9127 1.1831 1.1110
ENERGY: 7000 1548.7294 2360.9649 3145.3052 0.0000 -175868.8570 20386.7536 664.4979 0.0000 30675.6662 -117086.9398 298.2504 -147762.6060 -117037.9131 298.6796 -54.2866 -15.9430 503600.4064 -13.6780 -13.0189
ENERGY: 8000 1635.1563 2262.0044 3186.7645 0.0000 -175520.8044 20055.5171 639.4169 0.0000 30766.5421 -116975.4031 299.1340 -147741.9453 -116918.5520 298.8883 -7.3544 16.4974 502969.6078 7.0120 6.5966
ENERGY: 9000 1595.8573 2299.9348 3189.3385 0.0000 -175277.5133 19781.2513 657.1430 0.0000 30661.7082 -117092.2801 298.1147 -147753.9883 -117050.6172 299.4101 -57.9495 -44.9244 501689.8758 -13.6586 -14.1438
ENERGY: 10000 1674.8527 2310.3128 3181.1994 0.0000 -175352.0692 19807.9406 655.4958 0.0000 30538.9233 -117183.3445 296.9209 -147722.2678 -117146.4489 297.7634 -48.9391 -19.1642 502144.8082 15.1118 14.7437
TCL: Setting parameter constraintScaling to 2.5
TCL: Running for 5000 steps
ETITLE: TS BOND ANGLE DIHED IMPRP ELECT VDW BOUNDARY MISC KINETIC TOTAL TEMP POTENTIAL TOTAL3 TEMPAVG PRESSURE GPRESSURE VOLUME PRESSAVG GPRESSAVG
ENERGY: 10000 1674.8527 2310.3128 3181.1994 0.0000 -175352.0692 19807.9406 327.7479 0.0000 30536.8882 -117513.1275 296.9011 -148050.0157 -117471.8477 296.9011 -167.2932 -145.7062 502144.8082 -167.2932 -145.7062
ENERGY: 11000 1585.3310 2336.2134 3178.4995 0.0000 -175353.4929 20136.6157 514.7499 0.0000 30656.8486 -116945.2347 298.0675 -147602.0833 -116895.0934 298.8704 -38.3527 40.9970 501952.3474 7.1948 7.3877
ENERGY: 12000 1585.9676 2367.9328 3176.1596 0.0000 -175446.5277 20017.3723 524.2581 0.0000 30840.9884 -116933.8489 299.8578 -147774.8373 -116889.5084 300.0923 -102.8234 -5.8440 501102.2078 2.2872 2.6902
ENERGY: 13000 1654.0467 2315.3034 3165.1444 0.0000 -175367.4053 19977.9076 521.2354 0.0000 30636.7699 -117096.9979 297.8723 -147733.7678 -117044.3490 299.2145 -83.5503 -50.3221 501116.3161 1.6969 1.4030
ENERGY: 14000 1610.8773 2376.2245 3175.7309 0.0000 -175563.8608 20121.3858 482.3703 0.0000 30649.0641 -117148.2079 297.9918 -147797.2720 -117088.9191 299.5327 -30.7741 1.4157 500079.8292 0.8822 0.5326
ENERGY: 15000 1625.5265 2348.8244 3174.8310 0.0000 -175132.3837 19945.7932 521.4827 0.0000 30668.1883 -116847.7377 298.1777 -147515.9260 -116800.5727 299.7089 -81.3178 -37.4154 498959.6988 -14.7370 -14.4648
TCL: Setting parameter constraintScaling to 1.25
TCL: Running for 5000 steps
ETITLE: TS BOND ANGLE DIHED IMPRP ELECT VDW BOUNDARY MISC KINETIC TOTAL TEMP POTENTIAL TOTAL3 TEMPAVG PRESSURE GPRESSURE VOLUME PRESSAVG GPRESSAVG
ENERGY: 15000 1625.5265 2348.8244 3174.8310 0.0000 -175132.3837 19945.7932 260.7413 0.0000 30666.1449 -117110.5225 298.1579 -147776.6673 -117066.4588 298.1579 -183.6815 -135.5539 498959.6988 -183.6815 -135.5539
ENERGY: 16000 1601.0267 2358.7459 3178.0446 0.0000 -175856.9754 20181.2908 370.6070 0.0000 30947.1229 -117220.1375 300.8897 -148167.2604 -117173.3855 299.8311 61.0921 81.7567 497262.1922 -4.1620 -3.5229
ENERGY: 17000 1600.3793 2408.4198 3174.2208 0.0000 -175586.9615 20102.8848 386.6993 0.0000 30907.0942 -117007.2632 300.5006 -147914.3574 -116965.5699 299.7094 -121.7385 -79.8667 500318.1724 2.7861 2.8377
ENERGY: 18000 1603.1781 2311.7685 3187.9856 0.0000 -175520.7480 20005.2958 407.9878 0.0000 30908.6269 -117095.9053 300.5155 -148004.5321 -117052.9889 299.8840 -16.7806 50.4219 501867.7581 -2.3596 -1.8567
ENERGY: 19000 1592.4746 2373.4010 3194.6316 0.0000 -175104.4175 19764.0854 396.9734 0.0000 30865.4951 -116917.3564 300.0961 -147782.8515 -116879.5101 300.8192 57.1778 80.8768 500206.0546 2.0982 2.2350
ENERGY: 20000 1604.6841 2384.4660 3196.5316 0.0000 -175504.8759 20045.3846 412.4224 0.0000 30784.3558 -117077.0314 299.3072 -147861.3873 -117039.3091 299.7163 79.4750 47.1535 500579.1829 0.6794 1.3809
TCL: Setting parameter constraintScaling to 0.625
TCL: Running for 5000 steps
ETITLE: TS BOND ANGLE DIHED IMPRP ELECT VDW BOUNDARY MISC KINETIC TOTAL TEMP POTENTIAL TOTAL3 TEMPAVG PRESSURE GPRESSURE VOLUME PRESSAVG GPRESSAVG
ENERGY: 20000 1604.6841 2384.4660 3196.5316 0.0000 -175504.8759 20045.3846 206.2112 0.0000 30782.2830 -117285.3155 299.2870 -148067.5984 -117240.8581 299.2870 52.4433 17.3284 500579.1829 52.4433 17.3284
ENERGY: 21000 1589.1304 2367.6464 3206.8316 0.0000 -175610.1963 20198.7660 315.1742 0.0000 30840.1908 -117092.4570 299.8501 -147932.6477 -117053.4008 300.7214 8.8284 -3.1932 498750.1231 -8.9807 -8.8705
ENERGY: 22000 1643.2012 2397.4433 3213.9378 0.0000 -175470.2228 19928.2364 297.8451 0.0000 30794.0044 -117195.5545 299.4010 -147989.5589 -117150.6009 300.3655 -50.0920 -24.0962 498804.6112 -6.6103 -6.2973
ENERGY: 23000 1586.8252 2369.5772 3212.1772 0.0000 -175584.6940 20021.4609 314.4549 0.0000 30950.3713 -117129.8274 300.9213 -148080.1987 -117077.5569 299.8441 0.0300 -8.0918 497184.0617 -7.3734 -7.4469
ENERGY: 24000 1641.1724 2358.7409 3222.6115 0.0000 -175767.0576 20002.7594 322.4205 0.0000 30810.3219 -117409.0310 299.5597 -148219.3529 -117365.6773 299.6473 -33.4769 -31.7597 496829.7780 -0.2964 -0.7475
ENERGY: 25000 1559.8459 2432.7946 3193.6433 0.0000 -175742.7646 19974.1721 316.0778 0.0000 30817.2107 -117449.0202 299.6266 -148266.2309 -117410.2747 298.8031 16.8974 47.2464 497590.5794 6.3566 6.1619
TCL: Setting parameter constraintScaling to 0.3125
TCL: Running for 5000 steps
ETITLE: TS BOND ANGLE DIHED IMPRP ELECT VDW BOUNDARY MISC KINETIC TOTAL TEMP POTENTIAL TOTAL3 TEMPAVG PRESSURE GPRESSURE VOLUME PRESSAVG GPRESSAVG
ENERGY: 25000 1559.8459 2432.7946 3193.6433 0.0000 -175742.7646 19974.1721 158.0389 0.0000 30815.1532 -117609.1166 299.6066 -148424.2698 -117565.1414 299.6066 -48.5422 -15.3202 497590.5794 -48.5422 -15.3202
ENERGY: 26000 1656.2438 2399.9561 3215.4657 0.0000 -175758.5823 20241.2653 238.0807 0.0000 30794.7576 -117212.8132 299.4083 -148007.5708 -117169.5387 300.0646 122.2092 47.0514 499201.3833 24.8063 24.2109
ENERGY: 27000 1617.3154 2427.2918 3207.2516 0.0000 -176146.8133 20197.8620 244.0763 0.0000 30949.3497 -117503.6665 300.9114 -148453.0162 -117443.7554 300.1627 3.5552 -22.5913 498483.7932 -1.7334 -2.1932
ENERGY: 28000 1643.2681 2433.5720 3228.6489 0.0000 -175980.8063 20121.3229 242.4361 0.0000 30864.5117 -117447.0466 300.0865 -148311.5583 -117398.3650 298.9925 -80.2136 -30.4327 497769.0096 -6.2387 -6.5942
ENERGY: 29000 1622.9528 2413.5650 3244.8438 0.0000 -176128.7848 20216.7871 252.9640 0.0000 30846.0875 -117531.5846 299.9074 -148377.6721 -117478.2182 299.9293 -106.1338 -13.6090 496489.3249 0.0972 0.3742
ENERGY: 30000 1651.9343 2412.8891 3245.8418 0.0000 -175947.8228 20171.7183 250.4518 0.0000 30730.9123 -117484.0753 298.7876 -148214.9876 -117438.1433 299.8231 14.4810 11.9488 497324.6268 5.5153 4.9420
TCL: Setting parameter constraintScaling to 0.15625
TCL: Running for 5000 steps
ETITLE: TS BOND ANGLE DIHED IMPRP ELECT VDW BOUNDARY MISC KINETIC TOTAL TEMP POTENTIAL TOTAL3 TEMPAVG PRESSURE GPRESSURE VOLUME PRESSAVG GPRESSAVG
ENERGY: 30000 1651.9343 2412.8891 3245.8418 0.0000 -175947.8228 20171.7183 125.2259 0.0000 30728.8769 -117611.3366 298.7678 -148340.2135 -117568.9412 298.7678 6.9132 6.9398 497324.6268 6.9132 6.9398
ENERGY: 31000 1610.0665 2398.2367 3206.2417 0.0000 -175382.1712 19916.8329 201.5483 0.0000 30878.7407 -117170.5045 300.2249 -148049.2452 -117113.7354 300.5684 52.2379 22.3472 498209.7086 9.1678 8.7250
ENERGY: 32000 1560.0633 2414.7968 3240.0255 0.0000 -175517.3264 19795.7145 190.5638 0.0000 30944.1972 -117371.9654 300.8613 -148316.1626 -117318.8663 300.3311 -125.0126 -84.1684 496520.5752 -10.4758 -10.3448
ENERGY: 33000 1606.2130 2385.1104 3216.1578 0.0000 -175750.9271 20282.4876 204.3313 0.0000 30906.1709 -117150.4561 300.4916 -148056.6270 -117113.3218 299.8034 3.6311 61.0593 497499.3257 0.2810 0.4572
ENERGY: 34000 1648.9008 2375.5259 3210.5287 0.0000 -175916.5789 19981.3371 206.1995 0.0000 30657.2826 -117836.8042 298.0717 -148494.0869 -117799.2069 300.1153 -68.1703 -23.2824 497381.0607 2.7520 2.5759
ENERGY: 35000 1693.9420 2421.3453 3204.9210 0.0000 -176011.3138 20006.1754 201.5398 0.0000 30841.0772 -117642.3131 299.8587 -148483.3903 -117605.0151 298.5452 -50.7456 -0.6259 497410.9171 1.7453 1.3314
TCL: Setting parameter constraintScaling to 0.078125
TCL: Running for 5000 steps
ETITLE: TS BOND ANGLE DIHED IMPRP ELECT VDW BOUNDARY MISC KINETIC TOTAL TEMP POTENTIAL TOTAL3 TEMPAVG PRESSURE GPRESSURE VOLUME PRESSAVG GPRESSAVG
ENERGY: 35000 1693.9420 2421.3453 3204.9210 0.0000 -176011.3138 20006.1754 100.7699 0.0000 30839.0158 -117745.1444 299.8386 -148584.1602 -117705.7530 299.8386 -88.5737 -38.7390 497410.9171 -88.5737 -38.7390
ENERGY: 36000 1637.7815 2403.1468 3212.7476 0.0000 -175923.7998 20166.0460 141.4671 0.0000 30995.6368 -117366.9740 301.3614 -148362.6108 -117328.2379 299.9383 103.0591 43.3306 497485.7775 5.5286 5.2700
ENERGY: 37000 1622.7328 2356.9703 3211.2014 0.0000 -175659.8044 19881.9275 159.9968 0.0000 30895.9482 -117531.0275 300.3922 -148426.9757 -117488.4979 299.3150 -51.4286 10.2222 497259.8272 -6.8986 -7.3950
ENERGY: 38000 1661.9110 2439.5549 3179.5095 0.0000 -175588.5977 19882.9816 150.4993 0.0000 30872.0066 -117402.1348 300.1594 -148274.1414 -117365.6309 299.7268 -55.2299 -71.7119 498829.4424 2.8686 3.2142
ENERGY: 39000 1601.1656 2399.7147 3203.5412 0.0000 -175307.3725 19819.1148 162.0374 0.0000 30889.8556 -117231.9432 300.3329 -148121.7988 -117182.0756 299.5857 -66.3331 8.2790 497780.1825 -3.2640 -3.6490
ENERGY: 40000 1642.5553 2464.3503 3215.0177 0.0000 -175700.0689 20081.1286 167.4367 0.0000 30847.7548 -117281.8255 299.9236 -148129.5804 -117237.3685 300.5067 57.9201 35.7033 497562.2184 -0.9231 -0.5274
TCL: Setting parameter constraintScaling to 0.0390625
TCL: Running for 5000 steps
ETITLE: TS BOND ANGLE DIHED IMPRP ELECT VDW BOUNDARY MISC KINETIC TOTAL TEMP POTENTIAL TOTAL3 TEMPAVG PRESSURE GPRESSURE VOLUME PRESSAVG GPRESSAVG
ENERGY: 40000 1642.5553 2464.3503 3215.0177 0.0000 -175700.0689 20081.1286 83.7183 0.0000 30845.6949 -117367.6038 299.9036 -148213.2987 -117322.2299 299.9036 54.3301 27.7712 497562.2184 54.3301 27.7712
ENERGY: 41000 1600.2940 2419.3301 3163.3497 0.0000 -176122.5562 20254.6890 114.4299 0.0000 31141.9920 -117428.4715 302.7844 -148570.4635 -117376.7123 300.3014 -27.5626 24.3864 498408.2563 6.5459 6.0875
ENERGY: 42000 1634.0921 2395.4242 3238.4540 0.0000 -175834.4979 19956.7146 120.8901 0.0000 30735.5818 -117753.3411 298.8330 -148488.9229 -117713.3394 299.6266 -32.4213 -64.6281 497466.2022 -1.3324 -1.1042
ENERGY: 43000 1610.8554 2501.7596 3183.7408 0.0000 -176041.5659 20028.5365 117.6459 0.0000 30578.2465 -118020.7813 297.3033 -148599.0278 -117974.7223 298.8585 -1.5788 -86.1219 497339.5623 0.4404 0.1262
ENERGY: 44000 1617.8349 2380.3858 3203.7533 0.0000 -175623.0121 19830.3871 124.3475 0.0000 30771.7382 -117694.5653 299.1845 -148466.3035 -117645.7092 298.7624 81.6473 51.0925 497888.9122 4.1583 4.4547
ENERGY: 45000 1621.7252 2424.1290 3199.0410 0.0000 -175877.2554 20140.4270 123.7409 0.0000 30646.5209 -117721.6715 297.9671 -148368.1924 -117663.3617 299.6139 -81.1996 33.5719 497516.8101 7.9661 7.5233
TCL: Setting parameter constraintScaling to 0.01953125
TCL: Running for 5000 steps
ETITLE: TS BOND ANGLE DIHED IMPRP ELECT VDW BOUNDARY MISC KINETIC TOTAL TEMP POTENTIAL TOTAL3 TEMPAVG PRESSURE GPRESSURE VOLUME PRESSAVG GPRESSAVG
ENERGY: 45000 1621.7252 2424.1290 3199.0410 0.0000 -175877.2554 20140.4270 61.8704 0.0000 30644.4601 -117785.6027 297.9470 -148430.0628 -117744.4290 297.9470 -108.5189 6.5494 497516.8101 -108.5189 6.5494
ENERGY: 46000 1558.3938 2432.2752 3177.7368 0.0000 -175747.6849 19877.1471 76.9512 0.0000 30831.3468 -117793.8339 299.7641 -148625.1807 -117746.2719 298.9400 -15.8247 5.6199 496470.2049 -0.6740 -0.5302
ENERGY: 47000 1651.5337 2439.7657 3245.8699 0.0000 -175614.9952 19938.8009 81.5764 0.0000 30829.4477 -117428.0010 299.7456 -148257.4487 -117373.5345 299.7345 -41.3377 -48.1222 496595.0388 -7.9123 -7.9843
ENERGY: 48000 1637.2700 2472.7425 3179.9693 0.0000 -175984.0246 20025.8814 90.3027 0.0000 30684.0968 -117893.7620 298.3324 -148577.8587 -117842.4554 300.0399 -78.0910 -70.2737 495199.4853 -6.1838 -6.2413
ENERGY: 49000 1611.5927 2402.2660 3204.4372 0.0000 -176283.6566 20042.4207 93.6468 0.0000 30866.2785 -118063.0147 300.1037 -148929.2932 -118018.7323 299.3431 -66.7196 16.7450 495094.9819 9.4643 8.7165
ENERGY: 50000 1613.6039 2472.4350 3248.6139 0.0000 -176470.7041 20100.1621 95.0741 0.0000 30757.3206 -118183.4944 299.0443 -148940.8150 -118144.0549 298.6089 -28.0544 15.4934 493766.5411 -3.8967 -3.6206
TCL: Setting parameter constraintScaling to 0
TCL: Running for 5000 steps
ETITLE: TS BOND ANGLE DIHED IMPRP ELECT VDW BOUNDARY MISC KINETIC TOTAL TEMP POTENTIAL TOTAL3 TEMPAVG PRESSURE GPRESSURE VOLUME PRESSAVG GPRESSAVG
ENERGY: 50000 1613.6039 2472.4350 3248.6139 0.0000 -176470.7040 20100.1621 0.0000 0.0000 30755.2792 -118280.6099 299.0245 -149035.8891 -118240.9755 299.0245 -42.7992 -1.1459 493766.5411 -42.7992 -1.1459
ENERGY: 51000 1677.4912 2422.0854 3199.7776 0.0000 -176608.4881 20423.9266 0.0000 0.0000 30675.1584 -118210.0490 298.2455 -148885.2073 -118162.4554 298.7970 168.3238 112.5169 494508.4646 3.0279 3.2505
ENERGY: 52000 1627.8221 2424.5475 3248.1945 0.0000 -175995.9213 20062.7712 0.0000 0.0000 30898.0093 -117734.5767 300.4122 -148632.5860 -117685.8263 299.9281 31.3169 32.4697 497216.6732 14.6773 14.6706
ENERGY: 53000 1617.2087 2444.8073 3194.5395 0.0000 -175940.9134 20099.0376 0.0000 0.0000 30806.3880 -117778.9322 299.5214 -148585.3203 -117748.0377 300.0636 93.4319 20.7291 497069.8238 1.1956 1.0280
ENERGY: 54000 1660.0678 2412.1726 3191.2557 0.0000 -176074.0338 20052.2372 0.0000 0.0000 30715.1060 -118043.1945 298.6339 -148758.3004 -118000.1855 299.0229 17.1626 21.4049 495971.0046 -6.3638 -6.4465
ENERGY: 55000 1607.2312 2379.6598 3210.0885 0.0000 -175928.8397 20164.8060 0.0000 0.0000 30741.0502 -117826.0040 298.8862 -148567.0542 -117784.8592 299.8492 43.3256 15.3816 496334.6343 -7.5745 -7.9923
