Info: SIMULATION PARAMETERS:
Info: TIMESTEP               1
Info: NUMBER OF STEPS        0
Info: STEPS PER CYCLE        10
Info: PERIODIC CELL BASIS 1  72.449 0 0
Info: PERIODIC CELL BASIS 2  0 93.247 0
Info: PERIODIC CELL BASIS 3  0 0 79.185
Info: PERIODIC CELL CENTER   -0.248 -0.156 -0.047
Info: WRAPPING WATERS AROUND PERIODIC BOUNDARIES ON OUTPUT.
Info: WRAPPING ALL CLUSTERS AROUND PERIODIC BOUNDARIES ON OUTPUT.
Info: FIRST LDB TIMESTEP     50
Info: LAST LDB TIMESTEP     -1
Info: HOM BACKGROUND SCALING 1
Info: PME BACKGROUND SCALING 1
Info: MIN ATOMS PER PATCH    40
Info: VELOCITY FILE          ../replicas/rep2/equilibration/eq1.vel
Info: CENTER OF MASS MOVING INITIALLY? NO
Info: DIELECTRIC             1
Info: EXCLUDE                SCALED ONE-FOUR
Info: 1-4 ELECTROSTATICS SCALED BY 0.833333
Info: MODIFIED 1-4 VDW PARAMETERS WILL BE USED
Info: DCD FILENAME           ../replicas/rep2/equilibration/eq2.dcd
Info: DCD FREQUENCY          5000
Info: DCD FIRST STEP         5000
Info: DCD FILE WILL CONTAIN UNIT CELL DATA
Info: XST FILENAME           ../replicas/rep2/equilibration/eq2.xst
Info: XST FREQUENCY          5000
Info: NO VELOCITY DCD OUTPUT
Info: NO FORCE DCD OUTPUT
Info: OUTPUT FILENAME        ../replicas/rep2/equilibration/eq2
Info: RESTART FILENAME       ../replicas/rep2/equilibration/eq2.restart
Info: RESTART FREQUENCY      5000
Info: BINARY RESTART FILES WILL BE USED
Info: SWITCHING ACTIVE
Info: SWITCHING ON           10
Info: SWITCHING OFF          12
Info: PAIRLIST DISTANCE      13.5
Info: PAIRLIST SHRINK RATE   0.01
Info: PAIRLIST GROW RATE     0.01
Info: PAIRLIST TRIGGER       0.3
Info: PAIRLISTS PER CYCLE    2
Info: PAIRLISTS ENABLED
Info: MARGIN                 0.48
Info: HYDROGEN GROUP CUTOFF  2.5
Info: PATCH DIMENSION        16.48
Info: ENERGY OUTPUT STEPS    500
Info: CROSSTERM ENERGY INCLUDED IN DIHEDRAL
Info: TIMING OUTPUT STEPS    5000
Info: PRESSURE OUTPUT STEPS  500
Info: HARMONIC CONSTRAINTS ACTIVE
Info: HARMONIC CONS EXP      2
Info: HARMONIC CONS SCALING  10
Info: LANGEVIN DYNAMICS ACTIVE
Info: LANGEVIN TEMPERATURE   300
Info: LANGEVIN USING BBK INTEGRATOR
Info: LANGEVIN DAMPING COEFFICIENT IS 5 INVERSE PS
Info: LANGEVIN DYNAMICS NOT APPLIED TO HYDROGENS
Info: BERENDSEN PRESSURE COUPLING ACTIVE
Info:     TARGET PRESSURE IS 1 BAR
Info:     COMPRESSIBILITY ESTIMATE IS 4.57e-05 BAR^(-1)
Info:     RELAXATION TIME IS 100 FS
Info:     APPLIED EVERY 2 STEPS
Info:     PRESSURE CONTROL IS GROUP-BASED
Info:       CELL FLUCTUATION IS ISOTROPIC
Info: PARTICLE MESH EWALD (PME) ACTIVE
Info: PME TOLERANCE               1e-06
Info: PME EWALD COEFFICIENT       0.257952
Info: PME INTERPOLATION ORDER     4
Info: PME GRID DIMENSIONS         80 96 80
Info: PME MAXIMUM GRID SPACING    1
Info: FULL ELECTROSTATIC EVALUATION FREQUENCY      2
Info: USING VERLET I (r-RESPA) MTS SCHEME.
Info: C1 SPLITTING OF LONG RANGE ELECTROSTATICS
Info: PLACING ATOMS IN PATCHES BY HYDROGEN GROUPS
Info: RIGID BONDS TO HYDROGEN : WATER
Info:         ERROR TOLERANCE : 1e-05
Info:          MAX ITERATIONS : 100
Info: RIGID WATER USING SETTLE ALGORITHM
Info: RANDOM NUMBER SEED     1503704960
Info: USE HYDROGEN BONDS?    NO
Info: Using AMBER format force field!
Info: AMBER PARM FILE        ../build/complex.top
Info: COORDINATE PDB         ../replicas/rep2/equilibration/eq1.coor
Info: Exclusions in PARM file will be ignored!
Info: SCNB (VDW SCALING)     2
Info: USING ARITHMETIC MEAN TO COMBINE L-J SIGMA PARAMETERS
Info: SUMMARY OF PARAMETERS:
Info: 71 BONDS
Info: 145 ANGLES
Info: 76 DIHEDRAL
Info: 0 IMPROPER
Info: 0 CROSSTERM
Info: 0 VDW
Info: 190 VDW_PAIRS
Info: 0 NBTHOLE_PAIRS
Info: STRUCTURE SUMMARY:
Info: 49394 ATOMS
Info: 49448 BONDS
Info: 8698 ANGLES
Info: 18780 DIHEDRALS
Info: 0 IMPROPERS
Info: 0 CROSSTERMS
Info: 0 EXCLUSIONS
Info: 2336 CONSTRAINTS
Info: 44667 RIGID BONDS
Info: 103515 DEGREES OF FREEDOM
Info: 17225 HYDROGEN GROUPS
Info: 4 ATOMS IN LARGEST HYDROGEN GROUP
Info: 17225 MIGRATION GROUPS
Info: 4 ATOMS IN LARGEST MIGRATION GROUP
Info: TOTAL MASS = 301478 amu
Info: TOTAL CHARGE = 1.00115e-05 e
Info: MASS DENSITY = 0.935846 g/cm^3
Info: ATOM DENSITY = 0.0923345 atoms/A^3
Info: ADDED 70656 IMPLICIT EXCLUSIONS
Info: NONBONDED TABLE R-SQUARED SPACING: 0.0625
Info: NONBONDED TABLE SIZE: 769 POINTS
Info: REMOVING COM VELOCITY -0.0324871 -0.00933871 -0.012596
TCL: Running for 5000 steps
ETITLE: TS BOND ANGLE DIHED IMPRP ELECT VDW BOUNDARY MISC KINETIC TOTAL TEMP POTENTIAL TOTAL3 TEMPAVG PRESSURE GPRESSURE VOLUME PRESSAVG GPRESSAVG
ENERGY: 0 396.4022 1203.7766 2932.0422 0.0000 -212677.4363 29542.6458 0.0000 0.0000 10081.1774 -168521.3921 98.0163 -178602.5695 -168511.7897 98.0163 -2403.7034 -2501.8023 534946.2959 -2403.7034 -2501.8023
ENERGY: 1000 1254.4919 1969.9457 3139.5723 0.0000 -193483.5907 26394.3670 780.5394 0.0000 24253.1090 -135691.5654 235.8058 -159944.6744 -135671.3305 219.5285 38.5974 23.0371 521590.2727 -14.9442 -15.1275
ENERGY: 2000 1458.1290 2152.1707 3128.3893 0.0000 -184488.4050 23470.3696 787.9768 0.0000 27854.7720 -125636.5976 270.8237 -153491.3696 -125599.1561 262.8388 -104.2602 -21.1980 514968.2853 -34.3827 -34.1817
ENERGY: 3000 1527.6951 2239.8404 3138.1685 0.0000 -179755.0254 21922.7560 797.8904 0.0000 29332.7495 -120795.9255 285.1937 -150128.6750 -120750.9209 284.1968 -94.1049 -27.0407 509828.9850 -17.0882 -17.1904
ENERGY: 4000 1587.7731 2236.7449 3151.2847 0.0000 -177350.0618 20999.1448 788.3656 0.0000 30142.3489 -118444.3998 293.0652 -148586.7487 -118391.2838 292.8160 -115.3836 28.4162 507673.6521 3.6325 4.0002
ENERGY: 5000 1573.7701 2233.2835 3129.9087 0.0000 -176045.2040 20504.0390 828.0379 0.0000 30358.6546 -117417.5104 295.1682 -147776.1650 -117388.0763 295.9558 -29.8819 16.0376 505135.0524 -2.9998 -3.7058
TCL: Setting parameter constraintScaling to 5.0
TCL: Running for 5000 steps
ETITLE: TS BOND ANGLE DIHED IMPRP ELECT VDW BOUNDARY MISC KINETIC TOTAL TEMP POTENTIAL TOTAL3 TEMPAVG PRESSURE GPRESSURE VOLUME PRESSAVG GPRESSAVG
ENERGY: 5000 1573.7701 2233.2835 3129.9087 0.0000 -176045.2040 20504.0390 414.0190 0.0000 30356.5914 -117833.5925 295.1482 -148190.1839 -117787.6286 295.1482 -35.9671 7.8114 505135.0524 -35.9671 7.8114
ENERGY: 6000 1577.6015 2323.1547 3159.5042 0.0000 -175383.6521 20183.7390 683.3570 0.0000 30648.9308 -116807.3649 297.9905 -147456.2957 -116767.7041 298.7359 -21.7355 13.2466 503211.1215 4.4440 4.4198
ENERGY: 7000 1623.5430 2310.0370 3155.4817 0.0000 -174939.2391 19695.6771 692.0748 0.0000 30555.8021 -116906.6233 297.0850 -147462.4255 -116856.2193 298.9372 55.1558 0.5147 505012.1424 20.9104 20.7935
ENERGY: 8000 1590.5414 2337.5808 3187.5890 0.0000 -175505.5714 20027.0275 635.9414 0.0000 30949.8553 -116777.0361 300.9163 -147726.8913 -116732.6739 299.4650 -80.1729 -18.7133 502549.9330 -0.5319 -0.7706
ENERGY: 9000 1597.1163 2307.7127 3154.3270 0.0000 -175286.7310 20059.4444 640.4718 0.0000 30781.7963 -116745.8625 299.2823 -147527.6588 -116698.1337 299.7523 52.7108 -13.2296 502058.8164 0.2829 -0.3066
ENERGY: 10000 1622.1433 2296.6378 3168.2850 0.0000 -175398.3605 20157.7399 656.5971 0.0000 30685.6388 -116811.3186 298.3474 -147496.9574 -116760.1837 299.5381 109.4836 75.2050 501703.1044 3.4408 2.5717
TCL: Setting parameter constraintScaling to 2.5
TCL: Running for 5000 steps
ETITLE: TS BOND ANGLE DIHED IMPRP ELECT VDW BOUNDARY MISC KINETIC TOTAL TEMP POTENTIAL TOTAL3 TEMPAVG PRESSURE GPRESSURE VOLUME PRESSAVG GPRESSAVG
ENERGY: 10000 1622.1433 2296.6378 3168.2850 0.0000 -175398.3605 20157.7399 328.2985 0.0000 30683.5719 -117141.6840 298.3273 -147825.2559 -117099.5318 298.3273 71.2181 36.4847 501703.1044 71.2181 36.4847
ENERGY: 11000 1534.7711 2346.7834 3190.1657 0.0000 -175832.6969 20220.8168 519.1917 0.0000 30545.2428 -117475.7253 296.9824 -148020.9681 -117419.8924 297.6658 102.9120 -5.4324 501042.6412 -2.1309 -2.3936
ENERGY: 12000 1625.3968 2328.4205 3178.1248 0.0000 -175760.1649 20239.0199 502.5185 0.0000 30937.7404 -116948.9440 300.7985 -147886.6844 -116906.7322 298.8335 36.6582 83.4198 500318.1108 1.7961 1.5046
ENERGY: 13000 1648.5494 2341.4382 3211.9055 0.0000 -175180.8780 19945.2342 513.9913 0.0000 30754.8835 -116764.8759 299.0207 -147519.7595 -116721.7255 300.6347 -32.5904 35.4890 503013.4541 7.9411 8.4072
ENERGY: 14000 1605.8272 2369.2907 3183.4390 0.0000 -175329.3042 19966.8757 516.5050 0.0000 30776.3115 -116911.0552 299.2290 -147687.3666 -116859.7539 300.2152 -51.0799 6.8483 500402.7650 -7.8205 -7.7616
ENERGY: 15000 1604.0371 2373.5700 3181.4807 0.0000 -175074.5077 19543.4428 496.0245 0.0000 30877.7693 -116998.1833 300.2154 -147875.9525 -116946.9026 300.2424 -103.6947 -1.8832 500878.3753 -3.5425 -2.7030
TCL: Setting parameter constraintScaling to 1.25
TCL: Running for 5000 steps
ETITLE: TS BOND ANGLE DIHED IMPRP ELECT VDW BOUNDARY MISC KINETIC TOTAL TEMP POTENTIAL TOTAL3 TEMPAVG PRESSURE GPRESSURE VOLUME PRESSAVG GPRESSAVG
ENERGY: 15000 1604.0371 2373.5700 3181.4807 0.0000 -175074.5077 19543.4428 248.0122 0.0000 30875.7243 -117248.2405 300.1956 -148123.9648 -117203.9313 300.1956 -190.7421 -95.2217 500878.3753 -190.7421 -95.2217
ENERGY: 16000 1566.5986 2346.2242 3213.2782 0.0000 -175676.7322 20048.5060 386.8172 0.0000 30815.2311 -117300.0769 299.6074 -148115.3081 -117254.7405 298.5821 27.1450 46.3855 499340.1511 0.0220 0.6189
ENERGY: 17000 1621.0820 2390.7429 3194.8023 0.0000 -175754.2148 20174.4632 402.8499 0.0000 30863.4764 -117106.7982 300.0765 -147970.2745 -117065.9723 299.2026 -144.6603 -75.5419 499545.7474 -3.0147 -2.7761
ENERGY: 18000 1641.6892 2426.7096 3193.6750 0.0000 -176102.1651 20193.3421 383.6442 0.0000 30927.0228 -117336.0822 300.6943 -148263.1049 -117286.6701 298.8725 -90.5522 29.8148 498586.8369 -0.4130 -0.6702
ENERGY: 19000 1638.8111 2345.6714 3194.6871 0.0000 -175702.7475 20076.2864 388.9428 0.0000 30659.5954 -117398.7532 298.0942 -148058.3486 -117361.5042 298.2475 -95.5792 -1.4163 498836.1300 4.2443 4.2622
ENERGY: 20000 1624.2131 2315.9600 3192.4708 0.0000 -175539.9787 19986.6082 402.1808 0.0000 30739.1554 -117279.3904 298.8677 -148018.5458 -117233.6291 298.8816 30.7491 -22.5709 500151.6114 15.0236 15.3638
TCL: Setting parameter constraintScaling to 0.625
TCL: Running for 5000 steps
ETITLE: TS BOND ANGLE DIHED IMPRP ELECT VDW BOUNDARY MISC KINETIC TOTAL TEMP POTENTIAL TOTAL3 TEMPAVG PRESSURE GPRESSURE VOLUME PRESSAVG GPRESSAVG
ENERGY: 20000 1624.2131 2315.9600 3192.4708 0.0000 -175539.9787 19986.6082 201.0904 0.0000 30737.0805 -117482.5557 298.8476 -148219.6362 -117441.8048 298.8476 -52.2801 -106.0534 500151.6114 -52.2801 -106.0534
ENERGY: 21000 1585.1479 2443.8620 3206.7080 0.0000 -175646.3272 20172.7998 311.7131 0.0000 30810.3371 -117115.7594 299.5598 -147926.0965 -117083.2701 298.8917 65.8351 21.6573 499558.3795 4.1492 3.9033
ENERGY: 22000 1625.6409 2417.1692 3222.6271 0.0000 -175713.1780 20125.5442 327.6969 0.0000 30696.1723 -117298.3274 298.4498 -147994.4997 -117244.1482 299.2658 -19.8677 4.3425 498802.2227 6.3564 6.3147
ENERGY: 23000 1585.9718 2393.1486 3214.7630 0.0000 -176213.6380 20388.3043 320.5367 0.0000 30746.2929 -117564.6208 298.9371 -148310.9136 -117515.6662 298.6435 136.6207 153.8059 498500.1400 -6.9156 -6.9840
ENERGY: 24000 1668.5157 2434.5796 3217.9841 0.0000 -175915.9724 20259.8090 325.7937 0.0000 30686.8801 -117322.4102 298.3595 -148009.2904 -117277.3956 299.1654 -165.5993 -101.5404 498842.8732 9.1341 8.8333
ENERGY: 25000 1636.2747 2399.2870 3184.7865 0.0000 -175827.2194 20146.9906 304.0730 0.0000 30552.5527 -117603.2547 297.0534 -148155.8075 -117570.7136 298.8936 149.7413 177.6070 499192.4825 0.7870 0.9234
TCL: Setting parameter constraintScaling to 0.3125
TCL: Running for 5000 steps
ETITLE: TS BOND ANGLE DIHED IMPRP ELECT VDW BOUNDARY MISC KINETIC TOTAL TEMP POTENTIAL TOTAL3 TEMPAVG PRESSURE GPRESSURE VOLUME PRESSAVG GPRESSAVG
ENERGY: 25000 1636.2747 2399.2870 3184.7865 0.0000 -175827.2194 20146.9906 152.0365 0.0000 30550.5236 -117757.3204 297.0337 -148307.8440 -117715.0983 297.0337 120.0311 144.1439 499192.4825 120.0311 144.1439
ENERGY: 26000 1606.0078 2417.1863 3225.4420 0.0000 -176123.0678 20245.3429 246.2385 0.0000 30622.9946 -117759.8556 297.7383 -148382.8502 -117704.2468 298.5922 -105.7182 -53.3808 498299.1275 9.0233 9.4237
ENERGY: 27000 1686.2356 2395.3329 3185.7482 0.0000 -175859.8401 20101.0612 248.1769 0.0000 30697.0535 -117546.2318 298.4584 -148243.2853 -117492.0817 299.8914 -79.7027 -15.8051 497227.0365 -14.5393 -14.3561
ENERGY: 28000 1651.7370 2444.5755 3181.6561 0.0000 -176140.6297 20107.6376 258.7566 0.0000 30715.0961 -117781.1708 298.6338 -148496.2669 -117733.7588 299.2750 20.8925 56.2239 497329.0701 -8.5364 -9.4246
ENERGY: 29000 1686.8414 2371.5124 3226.5324 0.0000 -175910.8142 20092.3484 266.4113 0.0000 30539.0610 -117728.1072 296.9223 -148267.1682 -117694.5440 298.6075 44.1388 127.6717 497120.4779 -9.4710 -9.6453
ENERGY: 30000 1634.5782 2385.5589 3213.5964 0.0000 -175629.4702 20070.9425 247.5287 0.0000 30914.9149 -117162.3506 300.5766 -148077.2655 -117111.1969 300.3212 43.7140 52.4821 498043.9412 11.3360 11.6151
TCL: Setting parameter constraintScaling to 0.15625
TCL: Running for 5000 steps
ETITLE: TS BOND ANGLE DIHED IMPRP ELECT VDW BOUNDARY MISC KINETIC TOTAL TEMP POTENTIAL TOTAL3 TEMPAVG PRESSURE GPRESSURE VOLUME PRESSAVG GPRESSAVG
ENERGY: 30000 1634.5782 2385.5589 3213.5964 0.0000 -175629.4702 20070.9425 123.7643 0.0000 30912.8647 -117288.1651 300.5567 -148201.0298 -117240.9684 300.5567 43.3627 54.2472 498043.9412 43.3627 54.2472
ENERGY: 31000 1627.9051 2421.9453 3229.7121 0.0000 -176029.2753 20041.7952 191.4910 0.0000 30735.8378 -117780.5888 298.8355 -148516.4266 -117747.6224 299.7860 -134.0110 -59.8373 497568.8696 -11.5644 -10.6866
ENERGY: 32000 1674.9851 2317.6686 3219.4701 0.0000 -176328.8509 20179.1830 186.2734 0.0000 30863.8558 -117887.4147 300.0802 -148751.2706 -117839.6879 298.7193 -65.9999 -95.8743 497613.6689 -13.0555 -13.0556
ENERGY: 33000 1640.8239 2457.3512 3225.5849 0.0000 -175733.1181 19950.4086 189.4427 0.0000 30653.4545 -117616.0522 298.0345 -148269.5068 -117573.6706 299.7530 -32.2057 -77.9577 496676.4364 -2.8736 -3.6608
ENERGY: 34000 1577.7821 2411.7595 3220.9280 0.0000 -175824.8936 19958.8169 213.9540 0.0000 30855.6425 -117586.0106 300.0003 -148441.6531 -117538.1820 298.7835 -107.9464 -55.1430 497769.2971 9.3795 9.2583
ENERGY: 35000 1591.1836 2407.8689 3234.4035 0.0000 -175642.0619 19791.1189 227.8028 0.0000 31118.4935 -117271.1905 302.5559 -148389.6841 -117228.4581 299.8666 -0.1396 3.7477 496715.8118 8.8602 8.4510
TCL: Setting parameter constraintScaling to 0.078125
TCL: Running for 5000 steps
ETITLE: TS BOND ANGLE DIHED IMPRP ELECT VDW BOUNDARY MISC KINETIC TOTAL TEMP POTENTIAL TOTAL3 TEMPAVG PRESSURE GPRESSURE VOLUME PRESSAVG GPRESSAVG
ENERGY: 35000 1591.1836 2407.8689 3234.4035 0.0000 -175642.0619 19791.1189 113.9014 0.0000 31116.4616 -117387.1239 302.5362 -148503.5855 -117343.1384 302.5362 -32.2797 -24.9494 496715.8118 -32.2797 -24.9494
ENERGY: 36000 1645.3994 2409.4668 3242.0797 0.0000 -176000.1105 19851.6683 150.1032 0.0000 30836.0133 -117865.3800 299.8095 -148701.3932 -117824.3387 299.2153 -156.7633 -68.1938 496630.6628 -5.2644 -5.3144
ENERGY: 37000 1615.9636 2400.2165 3206.1344 0.0000 -175840.7978 20025.7281 149.3429 0.0000 30830.7619 -117612.6504 299.7584 -148443.4123 -117565.7008 299.4871 -35.9371 8.4064 496949.3038 -5.1630 -5.6925
ENERGY: 38000 1571.2154 2352.2910 3191.9676 0.0000 -175609.5030 20041.7974 165.9865 0.0000 30885.8180 -117400.4271 300.2937 -148286.2451 -117350.2591 299.6949 172.2234 27.4535 498215.1347 10.2154 9.6307
ENERGY: 39000 1624.3923 2323.7049 3209.6509 0.0000 -175688.8926 20049.4182 162.6653 0.0000 30892.9859 -117426.0752 300.3634 -148319.0611 -117387.0592 299.6058 31.6799 -8.6808 497247.9299 8.6984 8.7060
ENERGY: 40000 1659.5397 2382.2709 3175.9117 0.0000 -175851.7359 20109.4241 163.2472 0.0000 30811.7463 -117549.5960 299.5735 -148361.3423 -117509.5230 299.3603 -41.8664 0.1177 496885.8644 -7.6921 -8.2132
TCL: Setting parameter constraintScaling to 0.0390625
TCL: Running for 5000 steps
ETITLE: TS BOND ANGLE DIHED IMPRP ELECT VDW BOUNDARY MISC KINETIC TOTAL TEMP POTENTIAL TOTAL3 TEMPAVG PRESSURE GPRESSURE VOLUME PRESSAVG GPRESSAVG
ENERGY: 40000 1659.5397 2382.2709 3175.9117 0.0000 -175851.7359 20109.4241 81.6236 0.0000 30809.6753 -117633.2906 299.5534 -148442.9659 -117589.7620 299.5534 -58.9954 -15.2051 496885.8644 -58.9954 -15.2051
ENERGY: 41000 1627.1399 2417.6097 3219.4181 0.0000 -175595.1735 19947.9205 113.6815 0.0000 30816.6719 -117452.7320 299.6214 -148269.4039 -117408.4763 299.9921 -60.9142 -100.0659 496987.7400 -2.4941 -2.6468
ENERGY: 42000 1641.4354 2396.2684 3185.7493 0.0000 -175717.9217 20081.4041 114.3594 0.0000 30884.8824 -117413.8228 300.2846 -148298.7051 -117371.7565 299.5013 6.2104 -10.5683 498254.5439 5.7949 6.2015
ENERGY: 43000 1576.8697 2396.0205 3205.9696 0.0000 -175489.0044 20046.3432 127.3195 0.0000 31039.2612 -117097.2207 301.7856 -148136.4819 -117054.0436 300.7817 44.4394 30.5708 498570.2267 -0.6580 -1.0154
ENERGY: 44000 1655.0129 2495.3531 3235.6852 0.0000 -175890.8619 20113.2957 115.2520 0.0000 31027.5477 -117248.7154 301.6717 -148276.2631 -117198.3173 301.1328 -49.7133 0.3975 497324.6858 10.1265 10.1750
ENERGY: 45000 1697.7678 2425.9957 3203.8678 0.0000 -176070.9446 20153.8523 127.8191 0.0000 30724.1535 -117737.4883 298.7219 -148461.6418 -117700.2395 299.7117 108.5387 96.1802 496556.1202 -5.5934 -5.4566
TCL: Setting parameter constraintScaling to 0.01953125
TCL: Running for 5000 steps
ETITLE: TS BOND ANGLE DIHED IMPRP ELECT VDW BOUNDARY MISC KINETIC TOTAL TEMP POTENTIAL TOTAL3 TEMPAVG PRESSURE GPRESSURE VOLUME PRESSAVG GPRESSAVG
ENERGY: 45000 1697.7678 2425.9957 3203.8678 0.0000 -176070.9446 20153.8523 63.9096 0.0000 30722.1233 -117803.4281 298.7021 -148525.5514 -117764.2924 298.7021 103.1987 89.3781 496556.1202 103.1987 89.3781
ENERGY: 46000 1630.1837 2483.1152 3213.6654 0.0000 -175718.5244 19947.4417 75.5696 0.0000 30981.9998 -117386.5490 301.2288 -148368.5488 -117331.2155 299.8192 -37.8025 -48.4783 497446.7145 11.5294 11.9995
ENERGY: 47000 1644.6389 2391.8213 3186.3339 0.0000 -175699.2465 19947.5770 79.9021 0.0000 30904.8753 -117544.0981 300.4790 -148448.9734 -117507.2430 300.6393 -40.8614 9.0108 496723.8364 -3.1097 -2.7589
ENERGY: 48000 1647.9865 2461.0480 3189.0587 0.0000 -175768.7695 20007.5610 84.1912 0.0000 30816.9196 -117562.0044 299.6238 -148378.9240 -117528.2365 300.1700 -31.0403 -4.1483 495698.2322 -0.8709 -0.8394
ENERGY: 49000 1579.6828 2401.6203 3224.5391 0.0000 -175884.9378 19974.8926 84.5045 0.0000 30749.0109 -117870.6874 298.9636 -148619.6983 -117819.9871 299.5871 26.7092 77.6466 495925.7596 -7.2939 -7.2064
ENERGY: 50000 1630.9701 2358.3753 3229.7367 0.0000 -175336.8964 19947.2424 84.6036 0.0000 30740.1967 -117345.7716 298.8779 -148085.9682 -117304.6351 299.7117 -40.6200 39.6242 497672.5532 2.4247 2.1414
TCL: Setting parameter constraintScaling to 0
TCL: Running for 5000 steps
ETITLE: TS BOND ANGLE DIHED IMPRP ELECT VDW BOUNDARY MISC KINETIC TOTAL TEMP POTENTIAL TOTAL3 TEMPAVG PRESSURE GPRESSURE VOLUME PRESSAVG GPRESSAVG
ENERGY: 50000 1630.9701 2358.3753 3229.7367 0.0000 -175336.8964 19947.2424 0.0000 0.0000 30738.1401 -117432.4318 298.8579 -148170.5718 -117386.6633 298.8579 -47.9361 34.4154 497672.5532 -47.9361 34.4154
ENERGY: 51000 1598.4162 2415.2601 3182.1958 0.0000 -176018.7985 20085.4086 0.0000 0.0000 30820.6543 -117916.8634 299.6601 -148737.5177 -117868.7148 299.3581 -87.5562 -15.1768 496458.7849 -15.1970 -15.5470
ENERGY: 52000 1627.5629 2412.3829 3215.9465 0.0000 -175506.3506 19848.3235 0.0000 0.0000 31032.5598 -117369.5750 301.7204 -148402.1348 -117330.9122 299.5709 35.6962 39.6332 497111.4060 6.5050 6.7057
ENERGY: 53000 1592.7441 2336.2086 3173.9218 0.0000 -175540.5108 19870.8161 0.0000 0.0000 30646.4878 -117920.3324 297.9668 -148566.8202 -117875.7010 299.7180 -82.4114 -18.7222 496032.4513 -6.3581 -6.2185
ENERGY: 54000 1564.4189 2448.3338 3199.2159 0.0000 -176071.7586 20147.1731 0.0000 0.0000 30766.9566 -117945.6603 299.1380 -148712.6169 -117898.1752 299.9638 24.7070 43.6619 496224.7570 5.4715 5.2728
ENERGY: 55000 1633.8129 2421.3866 3208.4632 0.0000 -175894.4861 20124.7900 0.0000 0.0000 30722.9272 -117783.1062 298.7100 -148506.0334 -117733.6060 300.8210 86.5745 62.4954 496959.2692 12.9616 12.7440
