Info: SIMULATION PARAMETERS:
Info: TIMESTEP               2
Info: NUMBER OF STEPS        0
Info: STEPS PER CYCLE        10
Info: PERIODIC CELL BASIS 1  72.449 0 0
Info: PERIODIC CELL BASIS 2  0 93.247 0
Info: PERIODIC CELL BASIS 3  0 0 79.185
Info: PERIODIC CELL CENTER   -0.248 -0.156 -0.047
Info: WRAPPING WATERS AROUND PERIODIC BOUNDARIES ON OUTPUT.
Info: WRAPPING ALL CLUSTERS AROUND PERIODIC BOUNDARIES ON OUTPUT.
Info: FIRST LDB TIMESTEP     50
Info: LAST LDB TIMESTEP     -1
Info: HOM BACKGROUND SCALING 1
Info: PME BACKGROUND SCALING 1
Info: MIN ATOMS PER PATCH    40
Info: INITIAL TEMPERATURE    0
Info: CENTER OF MASS MOVING INITIALLY? NO
Info: DIELECTRIC             1
Info: EXCLUDE                SCALED ONE-FOUR
Info: 1-4 ELECTROSTATICS SCALED BY 0.833333
Info: MODIFIED 1-4 VDW PARAMETERS WILL BE USED
Info: NO DCD TRAJECTORY OUTPUT
Info: NO EXTENDED SYSTEM TRAJECTORY OUTPUT
Info: NO VELOCITY DCD OUTPUT
Info: NO FORCE DCD OUTPUT
Info: OUTPUT FILENAME        ../replicas/rep104/equilibration/eq0
Info: NO RESTART FILE
Info: SWITCHING ACTIVE
Info: SWITCHING ON           10
Info: SWITCHING OFF          12
Info: PAIRLIST DISTANCE      13.5
Info: PAIRLIST SHRINK RATE   0.01
Info: PAIRLIST GROW RATE     0.01
Info: PAIRLIST TRIGGER       0.3
Info: PAIRLISTS PER CYCLE    2
Info: PAIRLISTS ENABLED
Info: MARGIN                 0
Info: HYDROGEN GROUP CUTOFF  2.5
Info: PATCH DIMENSION        16
Info: ENERGY OUTPUT STEPS    500
Info: CROSSTERM ENERGY INCLUDED IN DIHEDRAL
Info: TIMING OUTPUT STEPS    5000
Info: PRESSURE OUTPUT STEPS  500
Info: HARMONIC CONSTRAINTS ACTIVE
Info: HARMONIC CONS EXP      2
Info: HARMONIC CONS SCALING  10
Info: CONJUGATE GRADIENT MINIMIZATION ACTIVE
Info: LINE MINIMIZATION GOAL = 0.001
Info: BABY STEP SIZE = 0.01
Info: TINY STEP SIZE = 1e-06
Info: PARTICLE MESH EWALD (PME) ACTIVE
Info: PME TOLERANCE               1e-06
Info: PME EWALD COEFFICIENT       0.257952
Info: PME INTERPOLATION ORDER     4
Info: PME GRID DIMENSIONS         80 96 80
Info: PME MAXIMUM GRID SPACING    1
Info: FULL ELECTROSTATIC EVALUATION FREQUENCY      2
Info: USING VERLET I (r-RESPA) MTS SCHEME.
Info: C1 SPLITTING OF LONG RANGE ELECTROSTATICS
Info: PLACING ATOMS IN PATCHES BY HYDROGEN GROUPS
Info: RIGID BONDS TO HYDROGEN : ALL
Info:         ERROR TOLERANCE : 1e-05
Info:          MAX ITERATIONS : 100
Info: RIGID WATER USING SETTLE ALGORITHM
Info: RANDOM NUMBER SEED     1503692482
Info: USE HYDROGEN BONDS?    NO
Info: Using AMBER format force field!
Info: AMBER PARM FILE        ../build/complex.top
Info: COORDINATE PDB         ../build/complex.pdb
Info: Exclusions in PARM file will be ignored!
Info: SCNB (VDW SCALING)     2
Info: USING ARITHMETIC MEAN TO COMBINE L-J SIGMA PARAMETERS
Info: SUMMARY OF PARAMETERS:
Info: 71 BONDS
Info: 145 ANGLES
Info: 76 DIHEDRAL
Info: 0 IMPROPER
Info: 0 CROSSTERM
Info: 0 VDW
Info: 190 VDW_PAIRS
Info: 0 NBTHOLE_PAIRS
Info: STRUCTURE SUMMARY:
Info: 49394 ATOMS
Info: 49448 BONDS
Info: 8698 ANGLES
Info: 18780 DIHEDRALS
Info: 0 IMPROPERS
Info: 0 CROSSTERMS
Info: 0 EXCLUSIONS
Info: 2336 CONSTRAINTS
Info: 47058 RIGID BONDS
Info: 101124 DEGREES OF FREEDOM
Info: 17225 HYDROGEN GROUPS
Info: 4 ATOMS IN LARGEST HYDROGEN GROUP
Info: 17225 MIGRATION GROUPS
Info: 4 ATOMS IN LARGEST MIGRATION GROUP
Info: TOTAL MASS = 301478 amu
Info: TOTAL CHARGE = 1.00115e-05 e
Info: MASS DENSITY = 0.935846 g/cm^3
Info: ATOM DENSITY = 0.0923345 atoms/A^3
Info: ADDED 70656 IMPLICIT EXCLUSIONS
Info: NONBONDED TABLE R-SQUARED SPACING: 0.0625
Info: NONBONDED TABLE SIZE: 769 POINTS
Info: REMOVING COM VELOCITY 0 0 0
TCL: Minimizing for 100 steps
ETITLE: TS BOND ANGLE DIHED IMPRP ELECT VDW BOUNDARY MISC KINETIC TOTAL TEMP POTENTIAL TOTAL3 TEMPAVG PRESSURE GPRESSURE VOLUME PRESSAVG GPRESSAVG
ENERGY: 0 155.4176 1012.2698 2855.7272 0.0000 -154496.7912 207729.2052 0.0468 0.0000 0.0000 57255.8754 0.0000 57255.8754 57255.8754 0.0000 116350.2532 86546.1670 534946.2959 116350.2532 86546.1670
ENERGY: 20 304.7547 935.7911 2893.4663 0.0000 -158672.9404 17936.6595 143.9454 0.0000 0.0000 -136458.3233 0.0000 -136458.3233 -136458.3233 0.0000 16523.9388 -239.4557 534946.2959 16523.9388 -239.4557
ENERGY: 40 198.7423 799.5724 2896.9273 0.0000 -162811.4529 16417.9537 221.3029 0.0000 0.0000 -142276.9543 0.0000 -142276.9543 -142276.9543 0.0000 15011.2704 -2135.4697 534946.2959 15011.2704 -2135.4697
ENERGY: 60 130.5285 715.3440 2898.2166 0.0000 -167496.1538 15446.7544 315.2795 0.0000 0.0000 -147990.0308 0.0000 -147990.0308 -147990.0308 0.0000 13793.8844 -3799.3977 534946.2959 13793.8844 -3799.3977
ENERGY: 80 431.2748 765.6310 2904.3784 0.0000 -169937.5234 15121.1530 372.0121 0.0000 0.0000 -150343.0741 0.0000 -150343.0741 -150343.0741 0.0000 13270.3323 -4577.2430 534946.2959 13270.3323 -4577.2430
ENERGY: 100 119.3889 710.0605 2905.2589 0.0000 -171259.7172 14991.7864 387.3613 0.0000 0.0000 -152145.8612 0.0000 -152145.8612 -152145.8612 0.0000 13056.2647 -4908.1740 534946.2959 13056.2647 -4908.1740
TCL: Setting parameter constraintScaling to 5.0
TCL: Minimizing for 100 steps
ETITLE: TS BOND ANGLE DIHED IMPRP ELECT VDW BOUNDARY MISC KINETIC TOTAL TEMP POTENTIAL TOTAL3 TEMPAVG PRESSURE GPRESSURE VOLUME PRESSAVG GPRESSAVG
ENERGY: 100 119.3889 710.0605 2905.2589 0.0000 -171259.7172 14991.7864 193.6806 0.0000 0.0000 -152339.5419 0.0000 -152339.5419 -152339.5419 0.0000 13672.7709 -23021.8201 534946.2959 13672.7709 -23021.8201
ENERGY: 120 108.8887 687.5864 2912.9269 0.0000 -172865.8657 14798.2714 281.1914 0.0000 0.0000 -154077.0010 0.0000 -154077.0010 -154077.0010 0.0000 13218.2571 -4906.0122 534946.2959 13218.2571 -4906.0122
ENERGY: 140 309.5098 708.8813 2913.8027 0.0000 -174236.4980 14731.4903 326.6344 0.0000 0.0000 -155246.1796 0.0000 -155246.1796 -155246.1796 0.0000 12971.5439 -5303.2047 534946.2959 12971.5439 -5303.2047
ENERGY: 160 264.8485 683.0010 2923.1517 0.0000 -176273.0304 14757.1991 382.8036 0.0000 0.0000 -157262.0266 0.0000 -157262.0266 -157262.0266 0.0000 12741.2500 -5742.4663 534946.2959 12741.2500 -5742.4663
ENERGY: 180 269.1503 744.0903 2928.5665 0.0000 -178993.5823 15023.2099 473.2076 0.0000 0.0000 -159555.3577 0.0000 -159555.3577 -159555.3577 0.0000 12521.7015 -6223.5886 534946.2959 12521.7015 -6223.5886
ENERGY: 200 238.6496 694.1235 2941.3468 0.0000 -181555.0008 15586.7599 546.2434 0.0000 0.0000 -161547.8776 0.0000 -161547.8776 -161547.8776 0.0000 12582.6285 -6420.0143 534946.2959 12582.6285 -6420.0143
TCL: Setting parameter constraintScaling to 2.5
TCL: Minimizing for 100 steps
ETITLE: TS BOND ANGLE DIHED IMPRP ELECT VDW BOUNDARY MISC KINETIC TOTAL TEMP POTENTIAL TOTAL3 TEMPAVG PRESSURE GPRESSURE VOLUME PRESSAVG GPRESSAVG
ENERGY: 200 238.6496 694.1235 2941.3468 0.0000 -181555.0008 15586.7599 273.1217 0.0000 0.0000 -161820.9993 0.0000 -161820.9993 -161820.9993 0.0000 13229.5052 -25650.7167 534946.2959 13229.5052 -25650.7167
ENERGY: 220 246.8897 678.1236 2933.0122 0.0000 -182077.2182 15471.2719 337.9232 0.0000 0.0000 -162409.9977 0.0000 -162409.9977 -162409.9977 0.0000 12970.4669 -6087.1319 534946.2959 12970.4669 -6087.1319
ENERGY: 240 139.0855 665.7044 2928.5748 0.0000 -182462.8266 15493.7623 343.7505 0.0000 0.0000 -162891.9490 0.0000 -162891.9490 -162891.9490 0.0000 13033.8164 -6103.9831 534946.2959 13033.8164 -6103.9831
ENERGY: 260 165.1763 682.5051 2921.6552 0.0000 -183934.3610 15798.9643 384.9328 0.0000 0.0000 -163981.1275 0.0000 -163981.1275 -163981.1275 0.0000 13031.8988 -6241.2364 534946.2959 13031.8988 -6241.2364
ENERGY: 280 169.4517 700.3419 2917.6863 0.0000 -185418.6845 16228.1396 454.0668 0.0000 0.0000 -164948.9983 0.0000 -164948.9983 -164948.9983 0.0000 13144.7016 -6333.0089 534946.2959 13144.7016 -6333.0089
ENERGY: 300 126.6072 639.2730 2916.3126 0.0000 -186090.9290 16444.7507 480.7387 0.0000 0.0000 -165483.2467 0.0000 -165483.2467 -165483.2467 0.0000 13208.2066 -6337.8268 534946.2959 13208.2066 -6337.8268
TCL: Setting parameter constraintScaling to 1.25
TCL: Minimizing for 100 steps
ETITLE: TS BOND ANGLE DIHED IMPRP ELECT VDW BOUNDARY MISC KINETIC TOTAL TEMP POTENTIAL TOTAL3 TEMPAVG PRESSURE GPRESSURE VOLUME PRESSAVG GPRESSAVG
ENERGY: 300 126.6072 639.2730 2916.3126 0.0000 -186090.9290 16444.7507 240.3694 0.0000 0.0000 -165723.6161 0.0000 -165723.6161 -165723.6161 0.0000 13656.2524 -26347.5526 534946.2959 13656.2524 -26347.5526
ENERGY: 320 132.4484 624.6664 2911.1555 0.0000 -186667.7545 16580.2004 272.9003 0.0000 0.0000 -166146.3834 0.0000 -166146.3834 -166146.3834 0.0000 13629.5106 -5970.4779 534946.2959 13629.5106 -5970.4779
ENERGY: 340 156.0251 626.0533 2910.8837 0.0000 -187377.4832 16810.8502 296.4954 0.0000 0.0000 -166577.1756 0.0000 -166577.1756 -166577.1756 0.0000 13640.7104 -6011.6154 534946.2959 13640.7104 -6011.6154
ENERGY: 360 133.6452 680.0484 2910.0664 0.0000 -188833.3872 17307.4437 357.2363 0.0000 0.0000 -167444.9472 0.0000 -167444.9472 -167444.9472 0.0000 13849.0282 -6009.5283 534946.2959 13849.0282 -6009.5283
ENERGY: 380 252.9473 659.3682 2904.9272 0.0000 -190652.3139 18034.9070 406.2300 0.0000 0.0000 -168393.9341 0.0000 -168393.9341 -168393.9341 0.0000 14068.1950 -5963.8784 534946.2959 14068.1950 -5963.8784
ENERGY: 400 142.6463 636.4071 2899.4005 0.0000 -190672.4972 18018.5305 404.0166 0.0000 0.0000 -168571.4962 0.0000 -168571.4962 -168571.4962 0.0000 14155.5901 -5906.5766 534946.2959 14155.5901 -5906.5766
TCL: Setting parameter constraintScaling to 0.625
TCL: Minimizing for 100 steps
ETITLE: TS BOND ANGLE DIHED IMPRP ELECT VDW BOUNDARY MISC KINETIC TOTAL TEMP POTENTIAL TOTAL3 TEMPAVG PRESSURE GPRESSURE VOLUME PRESSAVG GPRESSAVG
ENERGY: 400 142.6463 636.4071 2899.4005 0.0000 -190672.4972 18018.5305 202.0083 0.0000 0.0000 -168773.5045 0.0000 -168773.5045 -168773.5045 0.0000 14457.6882 -26615.4894 534946.2959 14457.6882 -26615.4894
ENERGY: 420 149.3001 627.2164 2894.7163 0.0000 -191037.0643 18095.6966 221.1914 0.0000 0.0000 -169048.9435 0.0000 -169048.9435 -169048.9435 0.0000 14390.7350 -5696.9382 534946.2959 14390.7350 -5696.9382
ENERGY: 440 144.9844 634.7405 2891.1181 0.0000 -191468.1827 18225.4791 233.5540 0.0000 0.0000 -169338.3067 0.0000 -169338.3067 -169338.3067 0.0000 14450.0387 -5695.0035 534946.2959 14450.0387 -5695.0035
ENERGY: 460 180.2530 663.1365 2889.8133 0.0000 -192235.2028 18483.6046 258.0389 0.0000 0.0000 -169760.3565 0.0000 -169760.3565 -169760.3565 0.0000 14553.1502 -5696.7625 534946.2959 14553.1502 -5696.7625
ENERGY: 480 158.6941 637.0063 2885.3492 0.0000 -192884.6693 18725.0683 274.1434 0.0000 0.0000 -170204.4080 0.0000 -170204.4080 -170204.4080 0.0000 14586.0459 -5698.7420 534946.2959 14586.0459 -5698.7420
ENERGY: 500 155.1652 646.1153 2882.8727 0.0000 -193255.0249 18865.3355 279.5189 0.0000 0.0000 -170426.0173 0.0000 -170426.0173 -170426.0173 0.0000 14726.5357 -5629.2930 534946.2959 14726.5357 -5629.2930
TCL: Setting parameter constraintScaling to 0.3125
TCL: Minimizing for 100 steps
ETITLE: TS BOND ANGLE DIHED IMPRP ELECT VDW BOUNDARY MISC KINETIC TOTAL TEMP POTENTIAL TOTAL3 TEMPAVG PRESSURE GPRESSURE VOLUME PRESSAVG GPRESSAVG
ENERGY: 500 155.1652 646.1153 2882.8727 0.0000 -193255.0249 18865.3355 139.7595 0.0000 0.0000 -170565.7767 0.0000 -170565.7767 -170565.7767 0.0000 14911.4185 -26770.5110 534946.2959 14911.4185 -26770.5110
ENERGY: 520 180.1073 643.4686 2881.7340 0.0000 -193659.2518 18993.6230 155.0582 0.0000 0.0000 -170805.2607 0.0000 -170805.2607 -170805.2607 0.0000 14873.9209 -5500.6405 534946.2959 14873.9209 -5500.6405
ENERGY: 540 178.8865 645.1246 2876.1903 0.0000 -194140.9378 19171.9495 165.4873 0.0000 0.0000 -171103.2997 0.0000 -171103.2997 -171103.2997 0.0000 14928.4284 -5498.1817 534946.2959 14928.4284 -5498.1817
ENERGY: 560 153.7177 658.8891 2878.1597 0.0000 -195022.0681 19496.8831 187.3694 0.0000 0.0000 -171647.0491 0.0000 -171647.0491 -171647.0491 0.0000 15111.6858 -5436.4772 534946.2959 15111.6858 -5436.4772
ENERGY: 580 189.7222 667.3898 2883.2559 0.0000 -195478.6621 19666.2933 198.2507 0.0000 0.0000 -171873.7502 0.0000 -171873.7502 -171873.7502 0.0000 15088.8877 -5477.4190 534946.2959 15088.8877 -5477.4190
ENERGY: 600 175.6276 663.1047 2863.3789 0.0000 -197340.6591 20475.2534 222.3026 0.0000 0.0000 -172940.9918 0.0000 -172940.9918 -172940.9918 0.0000 15597.4213 -5218.6520 534946.2959 15597.4213 -5218.6520
TCL: Setting parameter constraintScaling to 0.15625
TCL: Minimizing for 100 steps
ETITLE: TS BOND ANGLE DIHED IMPRP ELECT VDW BOUNDARY MISC KINETIC TOTAL TEMP POTENTIAL TOTAL3 TEMPAVG PRESSURE GPRESSURE VOLUME PRESSAVG GPRESSAVG
ENERGY: 600 175.6276 663.1047 2863.3789 0.0000 -197340.6591 20475.2534 111.1513 0.0000 0.0000 -173052.1431 0.0000 -173052.1431 -173052.1431 0.0000 15721.0971 -26930.2454 534946.2959 15721.0971 -26930.2454
ENERGY: 620 164.5493 660.3419 2866.6357 0.0000 -197617.6831 20539.4291 120.6243 0.0000 0.0000 -173266.1028 0.0000 -173266.1028 -173266.1028 0.0000 15671.2192 -5161.9585 534946.2959 15671.2192 -5161.9585
ENERGY: 640 162.6869 653.3738 2857.7924 0.0000 -198080.9814 20706.5155 130.9749 0.0000 0.0000 -173569.6378 0.0000 -173569.6378 -173569.6378 0.0000 15730.3617 -5156.7718 534946.2959 15730.3617 -5156.7718
ENERGY: 660 158.3224 680.9037 2860.8920 0.0000 -198395.3458 20801.7987 130.4444 0.0000 0.0000 -173762.9846 0.0000 -173762.9846 -173762.9846 0.0000 15821.2131 -5119.6109 534946.2959 15821.2131 -5119.6109
ENERGY: 680 158.0811 658.2806 2856.1908 0.0000 -199336.3612 21164.2088 141.3459 0.0000 0.0000 -174358.2541 0.0000 -174358.2541 -174358.2541 0.0000 15983.6406 -5052.0183 534946.2959 15983.6406 -5052.0183
ENERGY: 700 196.4650 697.9524 2845.2059 0.0000 -200231.5720 21549.6577 158.5728 0.0000 0.0000 -174783.7182 0.0000 -174783.7182 -174783.7182 0.0000 16126.1776 -5019.7811 534946.2959 16126.1776 -5019.7811
TCL: Setting parameter constraintScaling to 0.078125
TCL: Minimizing for 100 steps
ETITLE: TS BOND ANGLE DIHED IMPRP ELECT VDW BOUNDARY MISC KINETIC TOTAL TEMP POTENTIAL TOTAL3 TEMPAVG PRESSURE GPRESSURE VOLUME PRESSAVG GPRESSAVG
ENERGY: 700 196.4650 697.9524 2845.2059 0.0000 -200231.5720 21549.6577 79.2864 0.0000 0.0000 -174863.0046 0.0000 -174863.0046 -174863.0046 0.0000 16201.6807 -27138.8341 534946.2959 16201.6807 -27138.8341
ENERGY: 720 168.0171 656.3694 2841.0889 0.0000 -200425.5867 21567.8024 81.5100 0.0000 0.0000 -175110.7987 0.0000 -175110.7987 -175110.7987 0.0000 16196.8154 -4962.8851 534946.2959 16196.8154 -4962.8851
ENERGY: 740 255.9046 670.9010 2840.5999 0.0000 -200844.7078 21731.0709 84.4340 0.0000 0.0000 -175261.7974 0.0000 -175261.7974 -175261.7974 0.0000 16272.8349 -4933.4606 534946.2959 16272.8349 -4933.4606
ENERGY: 760 162.0563 656.9202 2836.2789 0.0000 -201009.0466 21782.0861 86.7756 0.0000 0.0000 -175484.9296 0.0000 -175484.9296 -175484.9296 0.0000 16317.9802 -4918.2835 534946.2959 16317.9802 -4918.2835
ENERGY: 780 261.3613 715.3022 2830.0585 0.0000 -202046.6479 22212.7571 97.2687 0.0000 0.0000 -175929.9002 0.0000 -175929.9002 -175929.9002 0.0000 16518.3641 -4842.4729 534946.2959 16518.3641 -4842.4729
ENERGY: 800 172.8368 673.1090 2827.0064 0.0000 -203106.1058 22699.4363 107.6772 0.0000 0.0000 -176626.0402 0.0000 -176626.0402 -176626.0402 0.0000 16728.6573 -4728.6613 534946.2959 16728.6573 -4728.6613
TCL: Setting parameter constraintScaling to 0.0390625
TCL: Minimizing for 100 steps
ETITLE: TS BOND ANGLE DIHED IMPRP ELECT VDW BOUNDARY MISC KINETIC TOTAL TEMP POTENTIAL TOTAL3 TEMPAVG PRESSURE GPRESSURE VOLUME PRESSAVG GPRESSAVG
ENERGY: 800 172.8368 673.1090 2827.0064 0.0000 -203106.1058 22699.4363 53.8386 0.0000 0.0000 -176679.8788 0.0000 -176679.8788 -176679.8788 0.0000 16773.9388 -27248.3648 534946.2959 16773.9388 -27248.3648
ENERGY: 820 214.5713 673.5168 2825.0041 0.0000 -203281.9733 22746.3201 53.7432 0.0000 0.0000 -176768.8178 0.0000 -176768.8178 -176768.8178 0.0000 16794.9699 -4680.1173 534946.2959 16794.9699 -4680.1173
ENERGY: 840 280.0203 715.8195 2832.6085 0.0000 -203559.1692 22841.0041 55.1808 0.0000 0.0000 -176834.5360 0.0000 -176834.5360 -176834.5360 0.0000 16830.8052 -4672.3478 534946.2959 16830.8052 -4672.3478
ENERGY: 860 306.9335 727.1372 2823.8488 0.0000 -203751.5300 22904.2773 56.5335 0.0000 0.0000 -176932.7999 0.0000 -176932.7999 -176932.7999 0.0000 16896.4503 -4675.8765 534946.2959 16896.4503 -4675.8765
ENERGY: 880 207.5035 681.4479 2820.3168 0.0000 -204083.9284 23059.3845 59.1184 0.0000 0.0000 -177256.1573 0.0000 -177256.1573 -177256.1573 0.0000 16956.6878 -4620.3345 534946.2959 16956.6878 -4620.3345
ENERGY: 900 169.9904 663.3727 2817.3283 0.0000 -204247.4304 23116.5323 59.4576 0.0000 0.0000 -177420.7491 0.0000 -177420.7491 -177420.7491 0.0000 17015.1806 -4605.6575 534946.2959 17015.1806 -4605.6575
TCL: Setting parameter constraintScaling to 0.01953125
TCL: Minimizing for 100 steps
ETITLE: TS BOND ANGLE DIHED IMPRP ELECT VDW BOUNDARY MISC KINETIC TOTAL TEMP POTENTIAL TOTAL3 TEMPAVG PRESSURE GPRESSURE VOLUME PRESSAVG GPRESSAVG
ENERGY: 900 169.9904 663.3727 2817.3283 0.0000 -204247.4304 23116.5323 29.7288 0.0000 0.0000 -177450.4779 0.0000 -177450.4779 -177450.4779 0.0000 17039.4898 -27259.3419 534946.2959 17039.4898 -27259.3419
ENERGY: 920 181.5818 655.2725 2815.8144 0.0000 -204461.5852 23210.4360 30.1222 0.0000 0.0000 -177568.3584 0.0000 -177568.3584 -177568.3584 0.0000 17087.4943 -4556.3709 534946.2959 17087.4943 -4556.3709
ENERGY: 940 176.8951 658.3842 2815.4280 0.0000 -204730.0294 23342.7503 30.8936 0.0000 0.0000 -177705.6782 0.0000 -177705.6782 -177705.6782 0.0000 17148.2450 -4518.5562 534946.2959 17148.2450 -4518.5562
ENERGY: 960 190.6264 668.8141 2814.4727 0.0000 -204849.4403 23359.4460 31.5376 0.0000 0.0000 -177784.5436 0.0000 -177784.5436 -177784.5436 0.0000 17173.9045 -4514.6596 534946.2959 17173.9045 -4514.6596
ENERGY: 980 188.4944 670.7624 2811.3401 0.0000 -205279.8828 23546.3486 32.8129 0.0000 0.0000 -178030.1244 0.0000 -178030.1244 -178030.1244 0.0000 17267.8271 -4479.7377 534946.2959 17267.8271 -4479.7377
ENERGY: 1000 171.8784 661.2157 2808.5203 0.0000 -206100.7602 23945.6037 35.6476 0.0000 0.0000 -178477.8945 0.0000 -178477.8945 -178477.8945 0.0000 17479.4168 -4358.1152 534946.2959 17479.4168 -4358.1152
TCL: Setting parameter constraintScaling to 0
TCL: Minimizing for 5000 steps
ETITLE: TS BOND ANGLE DIHED IMPRP ELECT VDW BOUNDARY MISC KINETIC TOTAL TEMP POTENTIAL TOTAL3 TEMPAVG PRESSURE GPRESSURE VOLUME PRESSAVG GPRESSAVG
ENERGY: 1000 171.8784 661.2157 2808.5203 0.0000 -206100.7602 23945.6037 0.0000 0.0000 0.0000 -178513.5421 0.0000 -178513.5421 -178513.5421 0.0000 17506.7872 -27234.4685 534946.2959 17506.7872 -27234.4685
ENERGY: 2000 169.7696 664.3631 2799.1761 0.0000 -215203.7751 27986.3878 0.0000 0.0000 0.0000 -183584.0784 0.0000 -183584.0784 -183584.0784 0.0000 19639.0911 -3202.7478 534946.2959 19639.0911 -3202.7478
ENERGY: 3000 168.0734 665.8277 2793.0632 0.0000 -217589.2212 28925.6338 0.0000 0.0000 0.0000 -185036.6231 0.0000 -185036.6231 -185036.6231 0.0000 20134.0630 -2682.9380 534946.2959 20134.0630 -2682.9380
ENERGY: 4000 167.3605 667.2434 2785.9342 0.0000 -218719.8698 29373.5723 0.0000 0.0000 0.0000 -185725.7595 0.0000 -185725.7595 -185725.7595 0.0000 20361.7335 -2567.5135 534946.2959 20361.7335 -2567.5135
ENERGY: 5000 166.5829 665.9715 2779.6481 0.0000 -219404.9419 29661.4900 0.0000 0.0000 0.0000 -186131.2494 0.0000 -186131.2494 -186131.2494 0.0000 20507.8256 -2488.2724 534946.2959 20507.8256 -2488.2724
ENERGY: 6000 165.8812 665.1590 2780.7717 0.0000 -219810.5326 29859.8737 0.0000 0.0000 0.0000 -186338.8470 0.0000 -186338.8470 -186338.8470 0.0000 20622.2361 -2419.3005 534946.2959 20622.2361 -2419.3005
