Info: SIMULATION PARAMETERS:
Info: TIMESTEP               2
Info: NUMBER OF STEPS        0
Info: STEPS PER CYCLE        10
Info: PERIODIC CELL BASIS 1  72.449 0 0
Info: PERIODIC CELL BASIS 2  0 93.247 0
Info: PERIODIC CELL BASIS 3  0 0 79.185
Info: PERIODIC CELL CENTER   -0.248 -0.156 -0.047
Info: WRAPPING WATERS AROUND PERIODIC BOUNDARIES ON OUTPUT.
Info: WRAPPING ALL CLUSTERS AROUND PERIODIC BOUNDARIES ON OUTPUT.
Info: FIRST LDB TIMESTEP     50
Info: LAST LDB TIMESTEP     -1
Info: HOM BACKGROUND SCALING 1
Info: PME BACKGROUND SCALING 1
Info: MIN ATOMS PER PATCH    40
Info: INITIAL TEMPERATURE    0
Info: CENTER OF MASS MOVING INITIALLY? NO
Info: DIELECTRIC             1
Info: EXCLUDE                SCALED ONE-FOUR
Info: 1-4 ELECTROSTATICS SCALED BY 0.833333
Info: MODIFIED 1-4 VDW PARAMETERS WILL BE USED
Info: NO DCD TRAJECTORY OUTPUT
Info: NO EXTENDED SYSTEM TRAJECTORY OUTPUT
Info: NO VELOCITY DCD OUTPUT
Info: NO FORCE DCD OUTPUT
Info: OUTPUT FILENAME        ../replicas/rep91/equilibration/eq0
Info: NO RESTART FILE
Info: SWITCHING ACTIVE
Info: SWITCHING ON           10
Info: SWITCHING OFF          12
Info: PAIRLIST DISTANCE      13.5
Info: PAIRLIST SHRINK RATE   0.01
Info: PAIRLIST GROW RATE     0.01
Info: PAIRLIST TRIGGER       0.3
Info: PAIRLISTS PER CYCLE    2
Info: PAIRLISTS ENABLED
Info: MARGIN                 0
Info: HYDROGEN GROUP CUTOFF  2.5
Info: PATCH DIMENSION        16
Info: ENERGY OUTPUT STEPS    500
Info: CROSSTERM ENERGY INCLUDED IN DIHEDRAL
Info: TIMING OUTPUT STEPS    5000
Info: PRESSURE OUTPUT STEPS  500
Info: HARMONIC CONSTRAINTS ACTIVE
Info: HARMONIC CONS EXP      2
Info: HARMONIC CONS SCALING  10
Info: CONJUGATE GRADIENT MINIMIZATION ACTIVE
Info: LINE MINIMIZATION GOAL = 0.001
Info: BABY STEP SIZE = 0.01
Info: TINY STEP SIZE = 1e-06
Info: PARTICLE MESH EWALD (PME) ACTIVE
Info: PME TOLERANCE               1e-06
Info: PME EWALD COEFFICIENT       0.257952
Info: PME INTERPOLATION ORDER     4
Info: PME GRID DIMENSIONS         80 96 80
Info: PME MAXIMUM GRID SPACING    1
Info: FULL ELECTROSTATIC EVALUATION FREQUENCY      2
Info: USING VERLET I (r-RESPA) MTS SCHEME.
Info: C1 SPLITTING OF LONG RANGE ELECTROSTATICS
Info: PLACING ATOMS IN PATCHES BY HYDROGEN GROUPS
Info: RIGID BONDS TO HYDROGEN : ALL
Info:         ERROR TOLERANCE : 1e-05
Info:          MAX ITERATIONS : 100
Info: RIGID WATER USING SETTLE ALGORITHM
Info: RANDOM NUMBER SEED     1503690787
Info: USE HYDROGEN BONDS?    NO
Info: Using AMBER format force field!
Info: AMBER PARM FILE        ../build/complex.top
Info: COORDINATE PDB         ../build/complex.pdb
Info: Exclusions in PARM file will be ignored!
Info: SCNB (VDW SCALING)     2
Info: USING ARITHMETIC MEAN TO COMBINE L-J SIGMA PARAMETERS
Info: SUMMARY OF PARAMETERS:
Info: 71 BONDS
Info: 145 ANGLES
Info:   145 HARMONIC
Info:   0 COSINE-BASED
Info: 76 DIHEDRAL
Info: 0 IMPROPER
Info: 0 CROSSTERM
Info: 0 VDW
Info: 190 VDW_PAIRS
Info: 0 NBTHOLE_PAIRS
Info: STRUCTURE SUMMARY:
Info: 49394 ATOMS
Info: 49448 BONDS
Info: 8698 ANGLES
Info: 18780 DIHEDRALS
Info: 0 IMPROPERS
Info: 0 CROSSTERMS
Info: 0 EXCLUSIONS
Info: 2336 CONSTRAINTS
Info: 47058 RIGID BONDS
Info: 101124 DEGREES OF FREEDOM
Info: 17225 HYDROGEN GROUPS
Info: 4 ATOMS IN LARGEST HYDROGEN GROUP
Info: 17225 MIGRATION GROUPS
Info: 4 ATOMS IN LARGEST MIGRATION GROUP
Info: TOTAL MASS = 301478 amu
Info: TOTAL CHARGE = 1.00115e-05 e
Info: MASS DENSITY = 0.935846 g/cm^3
Info: ATOM DENSITY = 0.0923345 atoms/A^3
Info: ADDED 70656 IMPLICIT EXCLUSIONS
Info: NONBONDED TABLE R-SQUARED SPACING: 0.0625
Info: NONBONDED TABLE SIZE: 769 POINTS
Info: REMOVING COM VELOCITY 0 0 0
TCL: Minimizing for 100 steps
ETITLE: TS BOND ANGLE DIHED IMPRP ELECT VDW BOUNDARY MISC KINETIC TOTAL TEMP POTENTIAL TOTAL3 TEMPAVG PRESSURE GPRESSURE VOLUME PRESSAVG GPRESSAVG
ENERGY: 0 155.4176 1012.2698 2855.7272 0.0000 -154496.7912 207729.2052 0.0468 0.0000 0.0000 57255.8754 0.0000 57255.8754 57255.8754 0.0000 116350.2532 86546.1670 534946.2959 116350.2532 86546.1670
ENERGY: 20 304.7559 935.7912 2893.4663 0.0000 -158672.9413 17936.6591 143.9455 0.0000 0.0000 -136458.3233 0.0000 -136458.3233 -136458.3233 0.0000 16523.9384 -239.4562 534946.2959 16523.9384 -239.4562
ENERGY: 40 198.7496 799.5735 2896.9273 0.0000 -162811.4540 16417.9535 221.3032 0.0000 0.0000 -142276.9469 0.0000 -142276.9469 -142276.9469 0.0000 15011.2700 -2135.4702 534946.2959 15011.2700 -2135.4702
ENERGY: 60 130.5276 715.3439 2898.2167 0.0000 -167496.1644 15446.7527 315.2798 0.0000 0.0000 -147990.0437 0.0000 -147990.0437 -147990.0437 0.0000 13793.8821 -3799.4009 534946.2959 13793.8821 -3799.4009
ENERGY: 80 431.2707 765.6301 2904.3791 0.0000 -169937.5498 15121.1500 372.0127 0.0000 0.0000 -150343.1072 0.0000 -150343.1072 -150343.1072 0.0000 13270.3257 -4577.2516 534946.2959 13270.3257 -4577.2516
ENERGY: 100 129.7104 708.0636 2904.2783 0.0000 -171050.0684 15018.6539 384.2003 0.0000 0.0000 -151905.1618 0.0000 -151905.1618 -151905.1618 0.0000 13092.9126 -4843.6309 534946.2959 13092.9126 -4843.6309
TCL: Setting parameter constraintScaling to 5.0
TCL: Minimizing for 100 steps
ETITLE: TS BOND ANGLE DIHED IMPRP ELECT VDW BOUNDARY MISC KINETIC TOTAL TEMP POTENTIAL TOTAL3 TEMPAVG PRESSURE GPRESSURE VOLUME PRESSAVG GPRESSAVG
ENERGY: 100 129.7104 708.0636 2904.2783 0.0000 -171050.0684 15018.6539 192.1002 0.0000 0.0000 -152097.2620 0.0000 -152097.2620 -152097.2620 0.0000 13703.5080 -22944.4550 534946.2959 13703.5080 -22944.4550
ENERGY: 120 118.6812 680.2873 2909.9067 0.0000 -172396.3048 14830.1211 259.9546 0.0000 0.0000 -153597.3539 0.0000 -153597.3539 -153597.3539 0.0000 13320.9491 -4756.3046 534946.2959 13320.9491 -4756.3046
ENERGY: 140 109.1467 671.1470 2912.0863 0.0000 -174830.1978 14716.1444 337.7290 0.0000 0.0000 -156083.9444 0.0000 -156083.9444 -156083.9444 0.0000 12908.9689 -5423.1295 534946.2959 12908.9689 -5423.1295
ENERGY: 160 302.9256 691.3221 2915.1725 0.0000 -176082.7334 14739.2768 369.8460 0.0000 0.0000 -157064.1904 0.0000 -157064.1904 -157064.1904 0.0000 12780.5410 -5682.1269 534946.2959 12780.5410 -5682.1269
ENERGY: 180 182.1033 640.8166 2917.0634 0.0000 -177290.0268 14805.1275 391.9075 0.0000 0.0000 -158353.0085 0.0000 -158353.0085 -158353.0085 0.0000 12715.3845 -5871.3164 534946.2959 12715.3845 -5871.3164
ENERGY: 200 152.9113 659.3991 2924.2769 0.0000 -179513.3977 15069.0076 444.5894 0.0000 0.0000 -160263.2134 0.0000 -160263.2134 -160263.2134 0.0000 12655.5322 -6167.5108 534946.2959 12655.5322 -6167.5108
TCL: Setting parameter constraintScaling to 2.5
TCL: Minimizing for 100 steps
ETITLE: TS BOND ANGLE DIHED IMPRP ELECT VDW BOUNDARY MISC KINETIC TOTAL TEMP POTENTIAL TOTAL3 TEMPAVG PRESSURE GPRESSURE VOLUME PRESSAVG GPRESSAVG
ENERGY: 200 152.9113 659.3991 2924.2769 0.0000 -179513.3977 15069.0076 222.2947 0.0000 0.0000 -160485.5081 0.0000 -160485.5081 -160485.5081 0.0000 13203.3851 -25277.9060 534946.2959 13203.3851 -25277.9060
ENERGY: 220 470.9932 751.3580 2935.8602 0.0000 -180621.5285 15113.1294 323.6002 0.0000 0.0000 -161026.5874 0.0000 -161026.5874 -161026.5874 0.0000 12844.8155 -6082.5162 534946.2959 12844.8155 -6082.5162
ENERGY: 240 126.6096 651.0511 2922.2860 0.0000 -181013.5004 15205.7380 307.9630 0.0000 0.0000 -161799.8528 0.0000 -161799.8528 -161799.8528 0.0000 13026.2191 -5969.6526 534946.2959 13026.2191 -5969.6526
ENERGY: 260 141.0553 620.5048 2920.2547 0.0000 -181663.7227 15320.7796 326.3279 0.0000 0.0000 -162334.8003 0.0000 -162334.8003 -162334.8003 0.0000 13001.9916 -6052.4812 534946.2959 13001.9916 -6052.4812
ENERGY: 280 287.0726 711.8943 2935.7037 0.0000 -183134.8482 15617.1625 402.7013 0.0000 0.0000 -163180.3137 0.0000 -163180.3137 -163180.3137 0.0000 12942.0073 -6273.5137 534946.2959 12942.0073 -6273.5137
ENERGY: 300 198.5037 641.4463 2923.2576 0.0000 -184222.8408 15922.6713 420.0108 0.0000 0.0000 -164116.9511 0.0000 -164116.9511 -164116.9511 0.0000 13067.3540 -6268.2010 534946.2959 13067.3540 -6268.2010
TCL: Setting parameter constraintScaling to 1.25
TCL: Minimizing for 100 steps
ETITLE: TS BOND ANGLE DIHED IMPRP ELECT VDW BOUNDARY MISC KINETIC TOTAL TEMP POTENTIAL TOTAL3 TEMPAVG PRESSURE GPRESSURE VOLUME PRESSAVG GPRESSAVG
ENERGY: 300 198.5037 641.4463 2923.2576 0.0000 -184222.8408 15922.6713 210.0054 0.0000 0.0000 -164326.9565 0.0000 -164326.9565 -164326.9565 0.0000 13478.9391 -26081.2098 534946.2959 13478.9391 -26081.2098
ENERGY: 320 221.1445 664.9687 2920.5018 0.0000 -184774.4928 16038.7043 241.3015 0.0000 0.0000 -164687.8720 0.0000 -164687.8720 -164687.8720 0.0000 13450.8457 -5951.0281 534946.2959 13450.8457 -5951.0281
ENERGY: 340 231.4238 648.9800 2918.0464 0.0000 -185276.4476 16165.4070 259.9183 0.0000 0.0000 -165052.6721 0.0000 -165052.6721 -165052.6721 0.0000 13447.1057 -6008.6884 534946.2959 13447.1057 -6008.6884
ENERGY: 360 129.7121 629.5524 2910.9002 0.0000 -186509.7489 16507.6198 307.3016 0.0000 0.0000 -166024.6628 0.0000 -166024.6628 -166024.6628 0.0000 13519.3359 -6067.9529 534946.2959 13519.3359 -6067.9529
ENERGY: 380 159.8309 638.9993 2904.7905 0.0000 -187796.9993 16931.9023 347.4291 0.0000 0.0000 -166814.0472 0.0000 -166814.0472 -166814.0472 0.0000 13665.7719 -6065.8272 534946.2959 13665.7719 -6065.8272
ENERGY: 400 143.4547 638.2418 2908.1582 0.0000 -188755.4361 17258.5370 357.0565 0.0000 0.0000 -167449.9879 0.0000 -167449.9879 -167449.9879 0.0000 13804.7292 -6044.7931 534946.2959 13804.7292 -6044.7931
TCL: Setting parameter constraintScaling to 0.625
TCL: Minimizing for 100 steps
ETITLE: TS BOND ANGLE DIHED IMPRP ELECT VDW BOUNDARY MISC KINETIC TOTAL TEMP POTENTIAL TOTAL3 TEMPAVG PRESSURE GPRESSURE VOLUME PRESSAVG GPRESSAVG
ENERGY: 400 143.4547 638.2418 2908.1582 0.0000 -188755.4361 17258.5370 178.5282 0.0000 0.0000 -167628.5162 0.0000 -167628.5162 -167628.5162 0.0000 14088.3265 -26547.9461 534946.2959 14088.3265 -26547.9461
ENERGY: 420 174.6105 686.9287 2906.0770 0.0000 -189572.8977 17506.6382 211.5284 0.0000 0.0000 -168087.1150 0.0000 -168087.1150 -168087.1150 0.0000 14154.9653 -5799.9752 534946.2959 14154.9653 -5799.9752
ENERGY: 440 208.3531 677.2708 2898.9556 0.0000 -190292.8342 17738.6424 238.7222 0.0000 0.0000 -168530.8900 0.0000 -168530.8900 -168530.8900 0.0000 14141.4718 -5865.3147 534946.2959 14141.4718 -5865.3147
ENERGY: 460 299.1079 694.3970 2895.6596 0.0000 -191354.4568 18125.6836 275.2774 0.0000 0.0000 -169064.3312 0.0000 -169064.3312 -169064.3312 0.0000 14267.8015 -5869.5151 534946.2959 14267.8015 -5869.5151
ENERGY: 480 154.5415 656.9267 2891.6245 0.0000 -191580.3150 18219.3909 271.3494 0.0000 0.0000 -169386.4820 0.0000 -169386.4820 -169386.4820 0.0000 14358.6720 -5799.3111 534946.2959 14358.6720 -5799.3111
ENERGY: 500 219.4953 727.8419 2893.3253 0.0000 -192533.5537 18605.0529 277.1860 0.0000 0.0000 -169810.6522 0.0000 -169810.6522 -169810.6522 0.0000 14569.8244 -5721.3403 534946.2959 14569.8244 -5721.3403
TCL: Setting parameter constraintScaling to 0.3125
TCL: Minimizing for 100 steps
ETITLE: TS BOND ANGLE DIHED IMPRP ELECT VDW BOUNDARY MISC KINETIC TOTAL TEMP POTENTIAL TOTAL3 TEMPAVG PRESSURE GPRESSURE VOLUME PRESSAVG GPRESSAVG
ENERGY: 500 219.4953 727.8419 2893.3253 0.0000 -192533.5537 18605.0529 138.5930 0.0000 0.0000 -169949.2452 0.0000 -169949.2452 -169949.2452 0.0000 14758.2911 -26766.4703 534946.2959 14758.2911 -26766.4703
ENERGY: 520 156.7067 640.8757 2885.9083 0.0000 -192736.1776 18645.7788 146.0144 0.0000 0.0000 -170260.8937 0.0000 -170260.8937 -170260.8937 0.0000 14724.6062 -5561.9603 534946.2959 14724.6062 -5561.9603
ENERGY: 540 219.2072 697.9373 2880.7390 0.0000 -193640.8521 18967.1095 175.7857 0.0000 0.0000 -170700.0733 0.0000 -170700.0733 -170700.0733 0.0000 14814.9158 -5570.6759 534946.2959 14814.9158 -5570.6759
ENERGY: 560 189.7745 680.3314 2876.1958 0.0000 -194574.2675 19323.6143 196.9942 0.0000 0.0000 -171307.3572 0.0000 -171307.3572 -171307.3572 0.0000 14973.1078 -5522.6715 534946.2959 14973.1078 -5522.6715
ENERGY: 580 225.5533 681.9680 2877.0240 0.0000 -195043.5871 19520.4607 201.7779 0.0000 0.0000 -171536.8031 0.0000 -171536.8031 -171536.8031 0.0000 15045.5808 -5498.8926 534946.2959 15045.5808 -5498.8926
ENERGY: 600 171.2991 684.8663 2872.2324 0.0000 -195306.2989 19624.7470 202.1516 0.0000 0.0000 -171751.0025 0.0000 -171751.0025 -171751.0025 0.0000 15147.9015 -5432.4236 534946.2959 15147.9015 -5432.4236
TCL: Setting parameter constraintScaling to 0.15625
TCL: Minimizing for 100 steps
ETITLE: TS BOND ANGLE DIHED IMPRP ELECT VDW BOUNDARY MISC KINETIC TOTAL TEMP POTENTIAL TOTAL3 TEMPAVG PRESSURE GPRESSURE VOLUME PRESSAVG GPRESSAVG
ENERGY: 600 171.2991 684.8663 2872.2324 0.0000 -195306.2989 19624.7470 101.0758 0.0000 0.0000 -171852.0783 0.0000 -171852.0783 -171852.0783 0.0000 15263.9541 -26908.6216 534946.2959 15263.9541 -26908.6216
ENERGY: 620 185.3387 653.9337 2870.6504 0.0000 -195502.0276 19682.1501 105.2496 0.0000 0.0000 -172004.7052 0.0000 -172004.7052 -172004.7052 0.0000 15246.1131 -5346.7393 534946.2959 15246.1131 -5346.7393
ENERGY: 640 159.5420 643.7828 2864.8458 0.0000 -195828.6264 19802.4560 109.7091 0.0000 0.0000 -172248.2906 0.0000 -172248.2906 -172248.2906 0.0000 15300.7997 -5330.7704 534946.2959 15300.7997 -5330.7704
ENERGY: 660 170.8537 654.7300 2861.1433 0.0000 -196808.5839 20171.3443 123.9530 0.0000 0.0000 -172826.5595 0.0000 -172826.5595 -172826.5595 0.0000 15474.7894 -5278.9302 534946.2959 15474.7894 -5278.9302
ENERGY: 680 184.2763 675.3438 2859.1753 0.0000 -197155.2889 20309.9774 127.6243 0.0000 0.0000 -172998.8917 0.0000 -172998.8917 -172998.8917 0.0000 15513.1113 -5267.9972 534946.2959 15513.1113 -5267.9972
ENERGY: 700 166.3266 706.3820 2857.7226 0.0000 -198235.1259 20726.0148 139.4179 0.0000 0.0000 -173639.2620 0.0000 -173639.2620 -173639.2620 0.0000 15722.2198 -5198.6445 534946.2959 15722.2198 -5198.6445
TCL: Setting parameter constraintScaling to 0.078125
TCL: Minimizing for 100 steps
ETITLE: TS BOND ANGLE DIHED IMPRP ELECT VDW BOUNDARY MISC KINETIC TOTAL TEMP POTENTIAL TOTAL3 TEMPAVG PRESSURE GPRESSURE VOLUME PRESSAVG GPRESSAVG
ENERGY: 700 166.3266 706.3820 2857.7226 0.0000 -198235.1259 20726.0148 69.7089 0.0000 0.0000 -173708.9709 0.0000 -173708.9709 -173708.9709 0.0000 15793.3500 -27071.0386 534946.2959 15793.3500 -27071.0386
ENERGY: 720 161.3583 660.2992 2849.7373 0.0000 -198431.7745 20798.0647 71.6614 0.0000 0.0000 -173890.6536 0.0000 -173890.6536 -173890.6536 0.0000 15831.5234 -5109.1863 534946.2959 15831.5234 -5109.1863
ENERGY: 740 188.2731 668.9996 2849.1599 0.0000 -198698.6401 20891.1598 74.8571 0.0000 0.0000 -174026.1905 0.0000 -174026.1905 -174026.1905 0.0000 15842.7833 -5117.1702 534946.2959 15842.7833 -5117.1702
ENERGY: 760 164.8739 663.0481 2845.7880 0.0000 -199236.4666 21083.9729 80.1301 0.0000 0.0000 -174398.6536 0.0000 -174398.6536 -174398.6536 0.0000 15945.2195 -5081.9461 534946.2959 15945.2195 -5081.9461
ENERGY: 780 164.4087 657.1330 2841.9754 0.0000 -199346.4392 21129.6341 80.1595 0.0000 0.0000 -174473.1285 0.0000 -174473.1285 -174473.1285 0.0000 15972.7262 -5063.6709 534946.2959 15972.7262 -5063.6709
ENERGY: 800 198.8157 715.5110 2849.4841 0.0000 -199907.4534 21349.9809 82.5911 0.0000 0.0000 -174711.0705 0.0000 -174711.0705 -174711.0705 0.0000 16149.3438 -4976.1070 534946.2959 16149.3438 -4976.1070
TCL: Setting parameter constraintScaling to 0.0390625
TCL: Minimizing for 100 steps
ETITLE: TS BOND ANGLE DIHED IMPRP ELECT VDW BOUNDARY MISC KINETIC TOTAL TEMP POTENTIAL TOTAL3 TEMPAVG PRESSURE GPRESSURE VOLUME PRESSAVG GPRESSAVG
ENERGY: 800 198.8157 715.5110 2849.4841 0.0000 -199907.4534 21349.9809 41.2956 0.0000 0.0000 -174752.3661 0.0000 -174752.3661 -174752.3661 0.0000 16188.7661 -27081.2179 534946.2959 16188.7661 -27081.2179
ENERGY: 820 164.5739 647.3317 2840.2519 0.0000 -200022.8085 21373.5661 42.4538 0.0000 0.0000 -174954.6311 0.0000 -174954.6311 -174954.6311 0.0000 16122.9758 -4994.9322 534946.2959 16122.9758 -4994.9322
ENERGY: 840 294.1468 703.6051 2834.9152 0.0000 -200871.0092 21711.1723 48.2591 0.0000 0.0000 -175278.9107 0.0000 -175278.9107 -175278.9107 0.0000 16241.4717 -4964.4747 534946.2959 16241.4717 -4964.4747
ENERGY: 860 169.4770 666.5936 2834.6220 0.0000 -201005.5669 21738.5421 48.1391 0.0000 0.0000 -175548.1932 0.0000 -175548.1932 -175548.1932 0.0000 16301.8128 -4937.5349 534946.2959 16301.8128 -4937.5349
ENERGY: 880 175.7648 667.5576 2836.3954 0.0000 -201327.5193 21879.4357 48.1658 0.0000 0.0000 -175720.2001 0.0000 -175720.2001 -175720.2001 0.0000 16376.0489 -4896.0884 534946.2959 16376.0489 -4896.0884
ENERGY: 900 200.5751 663.8963 2835.0117 0.0000 -202116.2340 22209.7079 51.1970 0.0000 0.0000 -176155.8460 0.0000 -176155.8460 -176155.8460 0.0000 16555.4766 -4809.8320 534946.2959 16555.4766 -4809.8320
TCL: Setting parameter constraintScaling to 0.01953125
TCL: Minimizing for 100 steps
ETITLE: TS BOND ANGLE DIHED IMPRP ELECT VDW BOUNDARY MISC KINETIC TOTAL TEMP POTENTIAL TOTAL3 TEMPAVG PRESSURE GPRESSURE VOLUME PRESSAVG GPRESSAVG
ENERGY: 900 200.5751 663.8963 2835.0117 0.0000 -202116.2340 22209.7079 25.5985 0.0000 0.0000 -176181.4445 0.0000 -176181.4445 -176181.4445 0.0000 16577.9838 -27232.7771 534946.2959 16577.9838 -27232.7771
ENERGY: 920 253.8748 691.8491 2824.4254 0.0000 -202274.8107 22251.9693 26.4674 0.0000 0.0000 -176226.2247 0.0000 -176226.2247 -176226.2247 0.0000 16566.0428 -4835.0509 534946.2959 16566.0428 -4835.0509
ENERGY: 940 207.7865 676.4461 2825.1903 0.0000 -202637.0773 22401.6286 28.2027 0.0000 0.0000 -176497.8231 0.0000 -176497.8231 -176497.8231 0.0000 16641.9762 -4791.1388 534946.2959 16641.9762 -4791.1388
ENERGY: 960 170.8982 671.7702 2820.9242 0.0000 -202720.1635 22426.6507 27.9314 0.0000 0.0000 -176601.9889 0.0000 -176601.9889 -176601.9889 0.0000 16663.5288 -4774.4697 534946.2959 16663.5288 -4774.4697
ENERGY: 980 163.2929 672.2413 2824.5469 0.0000 -203063.8639 22581.8725 28.3205 0.0000 0.0000 -176793.5898 0.0000 -176793.5898 -176793.5898 0.0000 16773.8756 -4717.4783 534946.2959 16773.8756 -4717.4783
ENERGY: 1000 191.4717 688.6929 2828.4765 0.0000 -203764.2869 22898.1078 30.1481 0.0000 0.0000 -177127.3897 0.0000 -177127.3897 -177127.3897 0.0000 16923.9451 -4635.8842 534946.2959 16923.9451 -4635.8842
TCL: Setting parameter constraintScaling to 0
TCL: Minimizing for 5000 steps
ETITLE: TS BOND ANGLE DIHED IMPRP ELECT VDW BOUNDARY MISC KINETIC TOTAL TEMP POTENTIAL TOTAL3 TEMPAVG PRESSURE GPRESSURE VOLUME PRESSAVG GPRESSAVG
ENERGY: 1000 191.4717 688.6929 2828.4765 0.0000 -203764.2869 22898.1078 0.0000 0.0000 0.0000 -177157.5379 0.0000 -177157.5379 -177157.5379 0.0000 16948.9475 -27250.9666 534946.2959 16948.9475 -27250.9666
ENERGY: 2000 171.4020 663.2398 2802.1306 0.0000 -213974.0885 27376.7589 0.0000 0.0000 0.0000 -182960.5571 0.0000 -182960.5571 -182960.5571 0.0000 19296.6037 -3419.5392 534946.2959 19296.6037 -3419.5392
ENERGY: 3000 166.7798 665.0756 2796.5668 0.0000 -217511.1776 28912.2940 0.0000 0.0000 0.0000 -184970.4615 0.0000 -184970.4615 -184970.4615 0.0000 20127.9954 -2964.3290 534946.2959 20127.9954 -2964.3290
ENERGY: 4000 164.8343 664.5162 2791.1962 0.0000 -218835.3123 29482.2393 0.0000 0.0000 0.0000 -185732.5262 0.0000 -185732.5262 -185732.5262 0.0000 20433.4284 -2797.8701 534946.2959 20433.4284 -2797.8701
ENERGY: 5000 164.8407 661.6717 2788.9672 0.0000 -219447.7097 29750.7689 0.0000 0.0000 0.0000 -186081.4613 0.0000 -186081.4613 -186081.4613 0.0000 20576.6523 -2707.7919 534946.2959 20576.6523 -2707.7919
ENERGY: 6000 165.3191 662.7797 2789.1198 0.0000 -219852.5710 29877.7776 0.0000 0.0000 0.0000 -186357.5747 0.0000 -186357.5747 -186357.5747 0.0000 20636.9012 -2692.9907 534946.2959 20636.9012 -2692.9907
