Info: SIMULATION PARAMETERS:
Info: TIMESTEP               1
Info: NUMBER OF STEPS        0
Info: STEPS PER CYCLE        10
Info: PERIODIC CELL BASIS 1  72.449 0 0
Info: PERIODIC CELL BASIS 2  0 93.247 0
Info: PERIODIC CELL BASIS 3  0 0 79.185
Info: PERIODIC CELL CENTER   -0.248 -0.156 -0.047
Info: WRAPPING WATERS AROUND PERIODIC BOUNDARIES ON OUTPUT.
Info: WRAPPING ALL CLUSTERS AROUND PERIODIC BOUNDARIES ON OUTPUT.
Info: FIRST LDB TIMESTEP     50
Info: LAST LDB TIMESTEP     -1
Info: HOM BACKGROUND SCALING 1
Info: PME BACKGROUND SCALING 1
Info: MIN ATOMS PER PATCH    40
Info: VELOCITY FILE          ../replicas/rep6/equilibration/eq1.vel
Info: CENTER OF MASS MOVING INITIALLY? NO
Info: DIELECTRIC             1
Info: EXCLUDE                SCALED ONE-FOUR
Info: 1-4 ELECTROSTATICS SCALED BY 0.833333
Info: MODIFIED 1-4 VDW PARAMETERS WILL BE USED
Info: DCD FILENAME           ../replicas/rep6/equilibration/eq2.dcd
Info: DCD FREQUENCY          5000
Info: DCD FIRST STEP         5000
Info: DCD FILE WILL CONTAIN UNIT CELL DATA
Info: XST FILENAME           ../replicas/rep6/equilibration/eq2.xst
Info: XST FREQUENCY          5000
Info: NO VELOCITY DCD OUTPUT
Info: NO FORCE DCD OUTPUT
Info: OUTPUT FILENAME        ../replicas/rep6/equilibration/eq2
Info: RESTART FILENAME       ../replicas/rep6/equilibration/eq2.restart
Info: RESTART FREQUENCY      5000
Info: BINARY RESTART FILES WILL BE USED
Info: SWITCHING ACTIVE
Info: SWITCHING ON           10
Info: SWITCHING OFF          12
Info: PAIRLIST DISTANCE      13.5
Info: PAIRLIST SHRINK RATE   0.01
Info: PAIRLIST GROW RATE     0.01
Info: PAIRLIST TRIGGER       0.3
Info: PAIRLISTS PER CYCLE    2
Info: PAIRLISTS ENABLED
Info: MARGIN                 0.48
Info: HYDROGEN GROUP CUTOFF  2.5
Info: PATCH DIMENSION        16.48
Info: ENERGY OUTPUT STEPS    500
Info: CROSSTERM ENERGY INCLUDED IN DIHEDRAL
Info: TIMING OUTPUT STEPS    5000
Info: PRESSURE OUTPUT STEPS  500
Info: HARMONIC CONSTRAINTS ACTIVE
Info: HARMONIC CONS EXP      2
Info: HARMONIC CONS SCALING  10
Info: LANGEVIN DYNAMICS ACTIVE
Info: LANGEVIN TEMPERATURE   300
Info: LANGEVIN USING BBK INTEGRATOR
Info: LANGEVIN DAMPING COEFFICIENT IS 5 INVERSE PS
Info: LANGEVIN DYNAMICS NOT APPLIED TO HYDROGENS
Info: BERENDSEN PRESSURE COUPLING ACTIVE
Info:     TARGET PRESSURE IS 1 BAR
Info:     COMPRESSIBILITY ESTIMATE IS 4.57e-05 BAR^(-1)
Info:     RELAXATION TIME IS 100 FS
Info:     APPLIED EVERY 2 STEPS
Info:     PRESSURE CONTROL IS GROUP-BASED
Info:       CELL FLUCTUATION IS ISOTROPIC
Info: PARTICLE MESH EWALD (PME) ACTIVE
Info: PME TOLERANCE               1e-06
Info: PME EWALD COEFFICIENT       0.257952
Info: PME INTERPOLATION ORDER     4
Info: PME GRID DIMENSIONS         80 96 80
Info: PME MAXIMUM GRID SPACING    1
Info: FULL ELECTROSTATIC EVALUATION FREQUENCY      2
Info: USING VERLET I (r-RESPA) MTS SCHEME.
Info: C1 SPLITTING OF LONG RANGE ELECTROSTATICS
Info: PLACING ATOMS IN PATCHES BY HYDROGEN GROUPS
Info: RIGID BONDS TO HYDROGEN : WATER
Info:         ERROR TOLERANCE : 1e-05
Info:          MAX ITERATIONS : 100
Info: RIGID WATER USING SETTLE ALGORITHM
Info: RANDOM NUMBER SEED     1503709555
Info: USE HYDROGEN BONDS?    NO
Info: Using AMBER format force field!
Info: AMBER PARM FILE        ../build/complex.top
Info: COORDINATE PDB         ../replicas/rep6/equilibration/eq1.coor
Info: Exclusions in PARM file will be ignored!
Info: SCNB (VDW SCALING)     2
Info: USING ARITHMETIC MEAN TO COMBINE L-J SIGMA PARAMETERS
Info: SUMMARY OF PARAMETERS:
Info: 71 BONDS
Info: 145 ANGLES
Info: 76 DIHEDRAL
Info: 0 IMPROPER
Info: 0 CROSSTERM
Info: 0 VDW
Info: 190 VDW_PAIRS
Info: 0 NBTHOLE_PAIRS
Info: STRUCTURE SUMMARY:
Info: 49394 ATOMS
Info: 49448 BONDS
Info: 8698 ANGLES
Info: 18780 DIHEDRALS
Info: 0 IMPROPERS
Info: 0 CROSSTERMS
Info: 0 EXCLUSIONS
Info: 2336 CONSTRAINTS
Info: 44667 RIGID BONDS
Info: 103515 DEGREES OF FREEDOM
Info: 17225 HYDROGEN GROUPS
Info: 4 ATOMS IN LARGEST HYDROGEN GROUP
Info: 17225 MIGRATION GROUPS
Info: 4 ATOMS IN LARGEST MIGRATION GROUP
Info: TOTAL MASS = 301478 amu
Info: TOTAL CHARGE = 1.00115e-05 e
Info: MASS DENSITY = 0.935846 g/cm^3
Info: ATOM DENSITY = 0.0923345 atoms/A^3
Info: ADDED 70656 IMPLICIT EXCLUSIONS
Info: NONBONDED TABLE R-SQUARED SPACING: 0.0625
Info: NONBONDED TABLE SIZE: 769 POINTS
Info: REMOVING COM VELOCITY 0.00439325 -0.0197941 0.0126579
TCL: Running for 5000 steps
ETITLE: TS BOND ANGLE DIHED IMPRP ELECT VDW BOUNDARY MISC KINETIC TOTAL TEMP POTENTIAL TOTAL3 TEMPAVG PRESSURE GPRESSURE VOLUME PRESSAVG GPRESSAVG
ENERGY: 0 394.9604 1231.0541 2912.1015 0.0000 -212676.0368 29521.8131 0.0000 0.0000 10120.0629 -168496.0448 98.3944 -178616.1077 -168486.4573 98.3944 -2395.2232 -2499.8024 534946.2959 -2395.2232 -2499.8024
ENERGY: 1000 1277.1921 1989.1756 3119.8098 0.0000 -193252.6198 26240.9928 785.0423 0.0000 24227.2649 -135613.1423 235.5545 -159840.4072 -135583.1655 218.8238 32.8355 -22.5815 523696.2872 -6.4306 -6.8420
ENERGY: 2000 1473.4797 2157.7818 3144.5272 0.0000 -183760.0914 23095.8640 768.8764 0.0000 28167.5051 -124952.0572 273.8643 -153119.5623 -124909.9409 265.7348 17.2366 -21.3254 515831.1581 -27.7911 -27.2397
ENERGY: 3000 1556.1405 2200.5957 3150.5844 0.0000 -179124.6726 21595.5690 789.6044 0.0000 29580.0745 -120252.1042 287.5983 -149832.1787 -120203.2442 284.5053 -165.0845 -14.8755 510694.5532 -22.8032 -22.9480
ENERGY: 4000 1560.3808 2234.4894 3165.0663 0.0000 -176843.4553 20607.3638 814.7558 0.0000 30156.0929 -118305.3064 293.1988 -148461.3993 -118261.8185 292.8973 4.3471 1.8474 506739.4598 -26.8703 -27.1777
ENERGY: 5000 1591.3265 2249.7922 3153.1600 0.0000 -175942.1926 20374.0995 818.3755 0.0000 30859.9504 -116895.4885 300.0422 -147755.4389 -116856.4398 298.0218 -50.4606 -22.0908 505041.4748 -9.3833 -8.8305
TCL: Setting parameter constraintScaling to 5.0
TCL: Running for 5000 steps
ETITLE: TS BOND ANGLE DIHED IMPRP ELECT VDW BOUNDARY MISC KINETIC TOTAL TEMP POTENTIAL TOTAL3 TEMPAVG PRESSURE GPRESSURE VOLUME PRESSAVG GPRESSAVG
ENERGY: 5000 1591.3265 2249.7922 3153.1600 0.0000 -175942.1926 20374.0995 409.1877 0.0000 30857.9055 -117306.7211 300.0223 -148164.6266 -117262.5966 300.0223 -99.6489 -66.6932 505041.4748 -99.6489 -66.6932
ENERGY: 6000 1622.9594 2349.5472 3158.7310 0.0000 -175720.4719 20296.1075 640.1608 0.0000 30604.6166 -117048.3493 297.5597 -147652.9659 -117007.2353 298.6195 -84.2502 -7.6499 503347.0672 -19.7917 -20.4279
ENERGY: 7000 1608.3769 2343.2244 3142.1730 0.0000 -175525.5106 20076.3506 655.8560 0.0000 31065.1197 -116634.4099 302.0370 -147699.5296 -116592.3985 300.0176 -118.5484 -62.9496 501794.9069 2.7785 2.1134
ENERGY: 8000 1567.8959 2315.9326 3189.5713 0.0000 -175485.3766 20181.9846 641.7142 0.0000 30813.7732 -116774.5047 299.5932 -147588.2779 -116726.0213 300.4622 -184.7701 -10.0706 501600.4274 -2.8460 -2.5502
ENERGY: 9000 1571.7077 2312.2950 3161.1390 0.0000 -175446.5915 20024.0298 637.6611 0.0000 30853.7317 -116886.0273 299.9817 -147739.7589 -116832.4873 299.6238 -21.3957 10.1391 501514.5714 5.8481 6.0594
ENERGY: 10000 1580.6298 2348.8245 3156.7177 0.0000 -175350.6261 20050.7457 654.0211 0.0000 31019.5552 -116540.1321 301.5940 -147559.6873 -116501.8488 300.9850 48.2764 18.6648 501725.0730 10.6176 10.1450
TCL: Setting parameter constraintScaling to 2.5
TCL: Running for 5000 steps
ETITLE: TS BOND ANGLE DIHED IMPRP ELECT VDW BOUNDARY MISC KINETIC TOTAL TEMP POTENTIAL TOTAL3 TEMPAVG PRESSURE GPRESSURE VOLUME PRESSAVG GPRESSAVG
ENERGY: 10000 1580.6298 2348.8245 3156.7177 0.0000 -175350.6261 20050.7457 327.0105 0.0000 31017.5363 -116869.1615 301.5743 -147886.6978 -116823.6517 301.5743 2.1697 -25.8891 501725.0730 2.1697 -25.8891
ENERGY: 11000 1662.6852 2325.4968 3174.3869 0.0000 -175344.0279 19785.3250 514.1874 0.0000 30973.4371 -116908.5096 301.1456 -147881.9467 -116867.2966 300.6669 38.9445 -61.0686 500478.6414 -4.5611 -5.1162
ENERGY: 12000 1617.8368 2356.4756 3155.2532 0.0000 -175629.0595 20028.6093 528.2741 0.0000 30806.0586 -117136.5518 299.5182 -147942.6105 -117094.5818 300.2279 86.8077 124.6280 500242.9335 -2.9582 -3.1659
ENERGY: 13000 1578.3449 2332.2441 3185.8031 0.0000 -175500.6979 19961.5624 517.3201 0.0000 30792.6843 -117132.7390 299.3882 -147925.4234 -117076.9965 300.3598 -43.3996 7.7939 501411.0440 12.0808 11.7285
ENERGY: 14000 1593.5577 2406.3326 3183.7108 0.0000 -176480.1114 20492.9239 513.9336 0.0000 31012.7110 -117276.9419 301.5274 -148289.6529 -117226.9025 300.0333 -30.3353 -18.3504 499134.4078 -15.2299 -15.5228
ENERGY: 15000 1633.7906 2257.7015 3202.2783 0.0000 -175575.3865 19895.8718 486.8479 0.0000 31019.2630 -117079.6333 301.5911 -148098.8964 -117032.0509 300.4708 -17.7999 8.7334 500926.4584 6.9600 7.1279
TCL: Setting parameter constraintScaling to 1.25
TCL: Running for 5000 steps
ETITLE: TS BOND ANGLE DIHED IMPRP ELECT VDW BOUNDARY MISC KINETIC TOTAL TEMP POTENTIAL TOTAL3 TEMPAVG PRESSURE GPRESSURE VOLUME PRESSAVG GPRESSAVG
ENERGY: 15000 1633.7906 2257.7015 3202.2783 0.0000 -175575.3865 19895.8718 243.4240 0.0000 31017.2512 -117325.0691 301.5716 -148342.3203 -117279.9072 301.5716 -119.2117 -91.3980 500926.4584 -119.2117 -91.3980
ENERGY: 16000 1621.9674 2323.7564 3186.6414 0.0000 -176160.7875 20262.5679 411.6336 0.0000 30759.4412 -117594.7796 299.0650 -148354.2209 -117558.6364 298.8408 -87.4214 -16.8001 498073.5178 -17.6331 -17.6837
ENERGY: 17000 1587.2717 2414.4377 3173.2678 0.0000 -176001.1081 20110.3984 408.7698 0.0000 30666.4511 -117640.5115 298.1608 -148306.9626 -117592.5293 298.4969 6.4142 25.3798 498364.8732 -3.8968 -3.9796
ENERGY: 18000 1637.2788 2370.4667 3201.8080 0.0000 -176133.6892 20175.0042 394.4713 0.0000 30793.4210 -117561.2392 299.3953 -148354.6602 -117520.9218 299.1382 74.5578 48.1885 498961.1567 0.3494 -0.1264
ENERGY: 19000 1668.6333 2336.2250 3196.4030 0.0000 -175925.0021 20185.7704 416.7972 0.0000 30685.8476 -117435.3255 298.3494 -148121.1731 -117393.5143 298.6290 22.8256 13.0078 498450.1582 -5.9669 -5.7865
ENERGY: 20000 1634.4791 2377.0402 3191.7112 0.0000 -175386.0991 19776.2863 391.2605 0.0000 30720.2146 -117295.1071 298.6836 -148015.3218 -117262.3858 298.6663 -123.1206 -63.0533 497995.7600 -5.0008 -5.4205
TCL: Setting parameter constraintScaling to 0.625
TCL: Running for 5000 steps
ETITLE: TS BOND ANGLE DIHED IMPRP ELECT VDW BOUNDARY MISC KINETIC TOTAL TEMP POTENTIAL TOTAL3 TEMPAVG PRESSURE GPRESSURE VOLUME PRESSAVG GPRESSAVG
ENERGY: 20000 1634.4791 2377.0402 3191.7112 0.0000 -175386.0991 19776.2863 195.6302 0.0000 30718.1790 -117492.7731 298.6638 -148210.9520 -117452.2348 298.6638 -210.7449 -150.8018 497995.7600 -210.7449 -150.8018
ENERGY: 21000 1644.9003 2328.5277 3195.8627 0.0000 -176086.1862 20197.9618 310.4808 0.0000 30815.1347 -117593.3182 299.6065 -148408.4529 -117538.4921 298.7434 -64.2051 -4.6743 498363.3151 -1.0032 -1.0066
ENERGY: 22000 1663.6831 2362.9756 3199.1841 0.0000 -175408.1422 19911.8387 300.1797 0.0000 30801.7888 -117168.4923 299.4767 -147970.2811 -117128.9656 300.2301 -101.6612 -42.2086 498474.4949 -8.7388 -8.9453
ENERGY: 23000 1604.0214 2374.4980 3217.9575 0.0000 -175607.3962 20104.2611 320.0049 0.0000 31016.6450 -116970.0084 301.5657 -147986.6533 -116918.0413 299.9099 63.4388 42.8693 498720.2388 5.4091 4.9526
ENERGY: 24000 1670.7307 2390.8201 3198.3635 0.0000 -175437.8328 19943.9947 322.1944 0.0000 30810.4876 -117101.2417 299.5613 -147911.7293 -117057.4209 300.1299 160.5719 142.1331 498485.1609 -7.3550 -7.6523
ENERGY: 25000 1546.1752 2400.2950 3207.8310 0.0000 -175522.5117 20097.0559 312.9097 0.0000 30710.1197 -117248.1252 298.5854 -147958.2449 -117204.2758 300.1306 -14.3287 -11.4800 498019.2042 -12.5122 -12.2848
TCL: Setting parameter constraintScaling to 0.3125
TCL: Running for 5000 steps
ETITLE: TS BOND ANGLE DIHED IMPRP ELECT VDW BOUNDARY MISC KINETIC TOTAL TEMP POTENTIAL TOTAL3 TEMPAVG PRESSURE GPRESSURE VOLUME PRESSAVG GPRESSAVG
ENERGY: 25000 1546.1752 2400.2950 3207.8310 0.0000 -175522.5117 20097.0559 156.4549 0.0000 30708.0965 -117406.6033 298.5658 -148114.6997 -117358.5562 298.5658 -53.3260 -40.7534 498019.2042 -53.3260 -40.7534
ENERGY: 26000 1607.7315 2363.5849 3169.5506 0.0000 -175627.9433 20029.0463 239.6768 0.0000 30720.6057 -117497.7475 298.6874 -148218.3532 -117458.1353 299.2438 -28.3564 4.9609 498374.2671 5.2919 5.0473
ENERGY: 27000 1630.1805 2382.0282 3215.6269 0.0000 -175845.7578 20220.1294 253.6192 0.0000 30705.9637 -117438.2098 298.5450 -148144.1736 -117387.4230 297.9537 3.2283 12.7045 499194.0204 8.4230 8.2862
ENERGY: 28000 1635.5543 2391.0636 3183.3082 0.0000 -175794.8031 20196.8159 262.8149 0.0000 30873.4744 -117251.7718 300.1737 -148125.2462 -117202.3143 300.3480 79.0189 3.6184 498688.5487 -10.3635 -10.2656
ENERGY: 29000 1647.9070 2431.1916 3238.2525 0.0000 -175488.6954 19933.0676 247.5108 0.0000 30827.3186 -117163.4473 299.7249 -147990.7659 -117125.4828 300.1789 104.6131 129.0136 498203.9293 -1.7894 -1.9006
ENERGY: 30000 1574.7630 2438.2398 3204.0729 0.0000 -175559.7613 19896.3402 273.0223 0.0000 30854.2793 -117319.0438 299.9870 -148173.3231 -117270.4607 299.9586 -2.5132 3.2849 498039.1329 10.7863 10.9612
TCL: Setting parameter constraintScaling to 0.15625
TCL: Running for 5000 steps
ETITLE: TS BOND ANGLE DIHED IMPRP ELECT VDW BOUNDARY MISC KINETIC TOTAL TEMP POTENTIAL TOTAL3 TEMPAVG PRESSURE GPRESSURE VOLUME PRESSAVG GPRESSAVG
ENERGY: 30000 1574.7630 2438.2398 3204.0729 0.0000 -175559.7613 19896.3402 136.5112 0.0000 30852.2441 -117457.5901 299.9673 -148309.8342 -117414.0677 299.9673 -19.3138 -12.4560 498039.1329 -19.3138 -12.4560
ENERGY: 31000 1615.1092 2391.7455 3195.9337 0.0000 -175696.6175 20030.8927 214.2607 0.0000 30662.2575 -117586.4182 298.1201 -148248.6757 -117551.2255 299.8957 -62.2162 33.9648 498261.9270 3.3811 3.8651
ENERGY: 32000 1611.3708 2405.9552 3205.5668 0.0000 -176204.9956 20324.5294 216.3710 0.0000 30810.5558 -117630.6465 299.5619 -148441.2023 -117591.3075 300.1293 -7.0352 -14.4495 496227.6599 -21.7577 -21.4991
ENERGY: 33000 1623.9807 2427.1781 3203.9967 0.0000 -175675.1208 19992.5187 212.4314 0.0000 31229.6174 -116985.3977 303.6363 -148215.0151 -116938.4810 301.4011 -200.6221 -103.1029 498635.4238 15.0376 15.0605
ENERGY: 34000 1590.0133 2442.8251 3224.4797 0.0000 -175241.8262 19799.9860 199.6424 0.0000 30950.3371 -117034.5428 300.9210 -147984.8799 -116986.5497 300.6519 36.9581 -50.0140 498229.2136 2.3122 2.3924
ENERGY: 35000 1643.8397 2409.6304 3237.7092 0.0000 -175788.8725 20140.5026 198.9217 0.0000 30722.6725 -117435.5964 298.7075 -148158.2690 -117397.8244 300.4758 105.1517 119.9468 496997.3950 -5.7303 -6.0411
TCL: Setting parameter constraintScaling to 0.078125
TCL: Running for 5000 steps
ETITLE: TS BOND ANGLE DIHED IMPRP ELECT VDW BOUNDARY MISC KINETIC TOTAL TEMP POTENTIAL TOTAL3 TEMPAVG PRESSURE GPRESSURE VOLUME PRESSAVG GPRESSAVG
ENERGY: 35000 1643.8397 2409.6304 3237.7092 0.0000 -175788.8725 20140.5026 99.4608 0.0000 30720.5994 -117537.1304 298.6873 -148257.7298 -117495.0817 298.6873 94.7915 106.1843 496997.3950 94.7915 106.1843
ENERGY: 36000 1603.0588 2442.7470 3223.5805 0.0000 -175751.7259 20104.9553 144.6211 0.0000 30657.2000 -117575.5632 298.0709 -148232.7632 -117535.8214 299.4693 -15.3551 23.2049 498628.4297 1.2186 0.5429
ENERGY: 37000 1657.7901 2476.7054 3233.6762 0.0000 -176045.9231 20111.2110 144.1433 0.0000 30737.1910 -117685.2061 298.8486 -148422.3971 -117635.0596 298.7366 54.5599 3.7450 497453.7685 -6.1121 -6.0522
ENERGY: 38000 1558.4245 2419.2693 3191.8200 0.0000 -176181.2663 20108.5854 174.5865 0.0000 30760.0071 -117968.5735 299.0705 -148728.5806 -117904.2950 299.1133 21.7525 3.3675 497686.0610 -0.1207 -0.4983
ENERGY: 39000 1668.9973 2454.6414 3198.1960 0.0000 -176140.4460 20221.1311 169.3759 0.0000 30770.2902 -117657.8141 299.1704 -148428.1043 -117622.6903 299.7074 -106.7852 -37.9593 499138.2514 13.3927 13.2040
ENERGY: 40000 1630.5745 2434.4719 3200.7822 0.0000 -175732.3471 19909.6128 172.5871 0.0000 30702.3023 -117682.0163 298.5094 -148384.3186 -117635.1777 299.3815 -79.6570 -89.5162 499567.1579 11.5439 11.5997
TCL: Setting parameter constraintScaling to 0.0390625
TCL: Running for 5000 steps
ETITLE: TS BOND ANGLE DIHED IMPRP ELECT VDW BOUNDARY MISC KINETIC TOTAL TEMP POTENTIAL TOTAL3 TEMPAVG PRESSURE GPRESSURE VOLUME PRESSAVG GPRESSAVG
ENERGY: 40000 1630.5745 2434.4719 3200.7822 0.0000 -175732.3471 19909.6128 86.2936 0.0000 30700.2324 -117770.3798 298.4893 -148470.6122 -117728.8678 298.4893 -105.0803 -117.7039 499567.1579 -105.0803 -117.7039
ENERGY: 41000 1642.0609 2453.9321 3229.9006 0.0000 -175783.9794 20008.7115 121.7891 0.0000 31091.3079 -117236.2773 302.2916 -148327.5852 -117186.0367 300.2763 -182.8538 -75.2514 498028.4408 0.3766 0.5800
ENERGY: 42000 1663.7399 2392.9506 3222.1190 0.0000 -175838.0235 20196.0188 121.0657 0.0000 30576.5695 -117665.5601 297.2870 -148242.1296 -117620.6899 299.7244 -26.8774 50.8687 497833.4771 -11.1073 -11.0656
ENERGY: 43000 1658.3094 2426.7118 3213.2734 0.0000 -176069.6453 20075.4102 117.5045 0.0000 30900.9998 -117677.4363 300.4413 -148578.4361 -117633.2562 299.5441 22.0814 37.2634 496381.7717 -1.7617 -2.1059
ENERGY: 44000 1619.9949 2402.7670 3185.4088 0.0000 -175897.7279 20013.9264 127.9230 0.0000 30881.0338 -117666.6739 300.2472 -148547.7077 -117628.6732 299.0419 -42.0697 -50.8390 496017.3854 -8.0972 -8.3186
ENERGY: 45000 1598.8689 2435.1866 3177.4416 0.0000 -175765.5793 20059.3692 123.1461 0.0000 30804.6785 -117566.8884 299.5048 -148371.5669 -117524.7640 299.9371 -65.8680 73.7044 498781.8672 3.6734 4.4391
TCL: Setting parameter constraintScaling to 0.01953125
TCL: Running for 5000 steps
ETITLE: TS BOND ANGLE DIHED IMPRP ELECT VDW BOUNDARY MISC KINETIC TOTAL TEMP POTENTIAL TOTAL3 TEMPAVG PRESSURE GPRESSURE VOLUME PRESSAVG GPRESSAVG
ENERGY: 45000 1598.8689 2435.1866 3177.4416 0.0000 -175765.5793 20059.3692 61.5731 0.0000 30802.6416 -117630.4983 299.4850 -148433.1400 -117589.5796 299.4850 -75.3518 59.6237 498781.8672 -75.3518 59.6237
ENERGY: 46000 1634.6009 2417.9054 3250.8606 0.0000 -175318.8788 19966.9033 85.1467 0.0000 30944.7135 -117018.7484 300.8663 -147963.4619 -116965.6565 301.6245 -181.4362 -132.5201 499069.3418 0.1550 0.8585
ENERGY: 47000 1641.2066 2473.8844 3205.5951 0.0000 -175958.6402 20054.5416 88.3060 0.0000 30965.6354 -117529.4711 301.0697 -148495.1065 -117482.7068 299.6851 -27.3866 11.6470 497429.9092 -10.1201 -10.1623
ENERGY: 48000 1630.5833 2432.4210 3227.7422 0.0000 -175417.0819 19882.2632 88.6406 0.0000 30774.3508 -117381.0808 299.2099 -148155.4316 -117334.1866 300.4938 -10.4971 31.2780 497271.6480 -4.0274 -3.5663
ENERGY: 49000 1682.7534 2395.0727 3233.2782 0.0000 -176072.2987 20186.4526 95.7867 0.0000 30823.7867 -117655.1685 299.6906 -148478.9552 -117607.5002 300.1750 -82.6671 45.8039 497201.1728 9.6861 9.3611
ENERGY: 50000 1639.1649 2403.8258 3182.5041 0.0000 -175546.7378 20063.3677 88.4479 0.0000 30886.2257 -117283.2018 300.2977 -148169.4274 -117244.6338 299.5198 30.2301 60.8685 498719.9350 6.2030 6.3933
TCL: Setting parameter constraintScaling to 0
TCL: Running for 5000 steps
ETITLE: TS BOND ANGLE DIHED IMPRP ELECT VDW BOUNDARY MISC KINETIC TOTAL TEMP POTENTIAL TOTAL3 TEMPAVG PRESSURE GPRESSURE VOLUME PRESSAVG GPRESSAVG
ENERGY: 50000 1639.1649 2403.8258 3182.5041 0.0000 -175546.7378 20063.3677 0.0000 0.0000 30884.1612 -117373.7141 300.2776 -148257.8753 -117333.1119 300.2776 19.3190 46.9568 498719.9350 19.3190 46.9568
ENERGY: 51000 1611.7975 2456.7234 3194.3508 0.0000 -176017.8115 20246.0015 0.0000 0.0000 30845.2137 -117663.7244 299.8989 -148508.9382 -117619.2121 299.6273 95.3522 56.9811 497126.4568 -0.8662 -0.4050
ENERGY: 52000 1660.1905 2383.0700 3183.4941 0.0000 -175474.6936 20000.4726 0.0000 0.0000 30865.3942 -117382.0723 300.0951 -148247.4665 -117342.2438 300.6895 -1.1978 3.1344 498044.9264 3.2288 3.3476
ENERGY: 53000 1647.2512 2441.6942 3173.8485 0.0000 -175845.3804 19958.5755 0.0000 0.0000 31035.6075 -117588.4035 301.7500 -148624.0110 -117551.2149 300.8612 -22.2554 -16.6538 496841.1007 -7.3925 -7.1642
ENERGY: 54000 1584.9102 2427.1007 3191.7598 0.0000 -175882.0201 20140.5214 0.0000 0.0000 30659.3922 -117878.3358 298.0922 -148537.7280 -117825.0662 300.3685 38.2417 48.6575 496985.3220 -0.0873 -0.3056
ENERGY: 55000 1639.5874 2420.2898 3188.7181 0.0000 -175744.0808 19826.4794 0.0000 0.0000 30822.1249 -117846.8812 299.6744 -148669.0061 -117795.6191 299.8390 3.7577 -25.9575 496299.3448 -4.0676 -4.5360
