Info: SIMULATION PARAMETERS:
Info: TIMESTEP               2
Info: NUMBER OF STEPS        0
Info: STEPS PER CYCLE        10
Info: PERIODIC CELL BASIS 1  72.449 0 0
Info: PERIODIC CELL BASIS 2  0 93.247 0
Info: PERIODIC CELL BASIS 3  0 0 79.185
Info: PERIODIC CELL CENTER   -0.248 -0.156 -0.047
Info: WRAPPING WATERS AROUND PERIODIC BOUNDARIES ON OUTPUT.
Info: WRAPPING ALL CLUSTERS AROUND PERIODIC BOUNDARIES ON OUTPUT.
Info: FIRST LDB TIMESTEP     50
Info: LAST LDB TIMESTEP     -1
Info: HOM BACKGROUND SCALING 1
Info: PME BACKGROUND SCALING 1
Info: MIN ATOMS PER PATCH    40
Info: INITIAL TEMPERATURE    0
Info: CENTER OF MASS MOVING INITIALLY? NO
Info: DIELECTRIC             1
Info: EXCLUDE                SCALED ONE-FOUR
Info: 1-4 ELECTROSTATICS SCALED BY 0.833333
Info: MODIFIED 1-4 VDW PARAMETERS WILL BE USED
Info: NO DCD TRAJECTORY OUTPUT
Info: NO EXTENDED SYSTEM TRAJECTORY OUTPUT
Info: NO VELOCITY DCD OUTPUT
Info: NO FORCE DCD OUTPUT
Info: OUTPUT FILENAME        ../replicas/rep18/equilibration/eq0
Info: NO RESTART FILE
Info: SWITCHING ACTIVE
Info: SWITCHING ON           10
Info: SWITCHING OFF          12
Info: PAIRLIST DISTANCE      13.5
Info: PAIRLIST SHRINK RATE   0.01
Info: PAIRLIST GROW RATE     0.01
Info: PAIRLIST TRIGGER       0.3
Info: PAIRLISTS PER CYCLE    2
Info: PAIRLISTS ENABLED
Info: MARGIN                 0
Info: HYDROGEN GROUP CUTOFF  2.5
Info: PATCH DIMENSION        16
Info: ENERGY OUTPUT STEPS    500
Info: CROSSTERM ENERGY INCLUDED IN DIHEDRAL
Info: TIMING OUTPUT STEPS    5000
Info: PRESSURE OUTPUT STEPS  500
Info: HARMONIC CONSTRAINTS ACTIVE
Info: HARMONIC CONS EXP      2
Info: HARMONIC CONS SCALING  10
Info: CONJUGATE GRADIENT MINIMIZATION ACTIVE
Info: LINE MINIMIZATION GOAL = 0.001
Info: BABY STEP SIZE = 0.01
Info: TINY STEP SIZE = 1e-06
Info: PARTICLE MESH EWALD (PME) ACTIVE
Info: PME TOLERANCE               1e-06
Info: PME EWALD COEFFICIENT       0.257952
Info: PME INTERPOLATION ORDER     4
Info: PME GRID DIMENSIONS         80 96 80
Info: PME MAXIMUM GRID SPACING    1
Info: FULL ELECTROSTATIC EVALUATION FREQUENCY      2
Info: USING VERLET I (r-RESPA) MTS SCHEME.
Info: C1 SPLITTING OF LONG RANGE ELECTROSTATICS
Info: PLACING ATOMS IN PATCHES BY HYDROGEN GROUPS
Info: RIGID BONDS TO HYDROGEN : ALL
Info:         ERROR TOLERANCE : 1e-05
Info:          MAX ITERATIONS : 100
Info: RIGID WATER USING SETTLE ALGORITHM
Info: RANDOM NUMBER SEED     1503692484
Info: USE HYDROGEN BONDS?    NO
Info: Using AMBER format force field!
Info: AMBER PARM FILE        ../build/complex.top
Info: COORDINATE PDB         ../build/complex.pdb
Info: Exclusions in PARM file will be ignored!
Info: SCNB (VDW SCALING)     2
Info: USING ARITHMETIC MEAN TO COMBINE L-J SIGMA PARAMETERS
Info: SUMMARY OF PARAMETERS:
Info: 71 BONDS
Info: 145 ANGLES
Info: 76 DIHEDRAL
Info: 0 IMPROPER
Info: 0 CROSSTERM
Info: 0 VDW
Info: 190 VDW_PAIRS
Info: 0 NBTHOLE_PAIRS
Info: STRUCTURE SUMMARY:
Info: 49394 ATOMS
Info: 49448 BONDS
Info: 8698 ANGLES
Info: 18780 DIHEDRALS
Info: 0 IMPROPERS
Info: 0 CROSSTERMS
Info: 0 EXCLUSIONS
Info: 2336 CONSTRAINTS
Info: 47058 RIGID BONDS
Info: 101124 DEGREES OF FREEDOM
Info: 17225 HYDROGEN GROUPS
Info: 4 ATOMS IN LARGEST HYDROGEN GROUP
Info: 17225 MIGRATION GROUPS
Info: 4 ATOMS IN LARGEST MIGRATION GROUP
Info: TOTAL MASS = 301478 amu
Info: TOTAL CHARGE = 1.00115e-05 e
Info: MASS DENSITY = 0.935846 g/cm^3
Info: ATOM DENSITY = 0.0923345 atoms/A^3
Info: ADDED 70656 IMPLICIT EXCLUSIONS
Info: NONBONDED TABLE R-SQUARED SPACING: 0.0625
Info: NONBONDED TABLE SIZE: 769 POINTS
Info: REMOVING COM VELOCITY 0 0 0
TCL: Minimizing for 100 steps
ETITLE: TS BOND ANGLE DIHED IMPRP ELECT VDW BOUNDARY MISC KINETIC TOTAL TEMP POTENTIAL TOTAL3 TEMPAVG PRESSURE GPRESSURE VOLUME PRESSAVG GPRESSAVG
ENERGY: 0 155.4176 1012.2698 2855.7272 0.0000 -154496.7911 207729.2052 0.0468 0.0000 0.0000 57255.8755 0.0000 57255.8755 57255.8755 0.0000 116350.2532 86546.1670 534946.2959 116350.2532 86546.1670
ENERGY: 20 304.7543 935.7911 2893.4663 0.0000 -158672.9400 17936.6597 143.9454 0.0000 0.0000 -136458.3232 0.0000 -136458.3232 -136458.3232 0.0000 16523.9391 -239.4554 534946.2959 16523.9391 -239.4554
ENERGY: 40 198.7448 799.5728 2896.9273 0.0000 -162811.4542 16417.9534 221.3030 0.0000 0.0000 -142276.9529 0.0000 -142276.9529 -142276.9529 0.0000 15011.2700 -2135.4702 534946.2959 15011.2700 -2135.4702
ENERGY: 60 130.5282 715.3440 2898.2166 0.0000 -167496.1591 15446.7536 315.2797 0.0000 0.0000 -147990.0371 0.0000 -147990.0371 -147990.0371 0.0000 13793.8833 -3799.3993 534946.2959 13793.8833 -3799.3993
ENERGY: 80 431.2733 765.6309 2904.3786 0.0000 -169937.5296 15121.1524 372.0122 0.0000 0.0000 -150343.0823 0.0000 -150343.0823 -150343.0823 0.0000 13270.3303 -4577.2456 534946.2959 13270.3303 -4577.2456
ENERGY: 100 119.3859 710.0599 2905.2591 0.0000 -171259.7164 14991.7867 387.3613 0.0000 0.0000 -152145.8636 0.0000 -152145.8636 -152145.8636 0.0000 13056.2646 -4908.1736 534946.2959 13056.2646 -4908.1736
TCL: Setting parameter constraintScaling to 5.0
TCL: Minimizing for 100 steps
ETITLE: TS BOND ANGLE DIHED IMPRP ELECT VDW BOUNDARY MISC KINETIC TOTAL TEMP POTENTIAL TOTAL3 TEMPAVG PRESSURE GPRESSURE VOLUME PRESSAVG GPRESSAVG
ENERGY: 100 119.3859 710.0599 2905.2591 0.0000 -171259.7164 14991.7867 193.6807 0.0000 0.0000 -152339.5443 0.0000 -152339.5443 -152339.5443 0.0000 13672.7708 -23021.8197 534946.2959 13672.7708 -23021.8197
ENERGY: 120 108.8828 687.5838 2912.9266 0.0000 -172865.8817 14798.2707 281.1915 0.0000 0.0000 -154077.0262 0.0000 -154077.0262 -154077.0262 0.0000 13218.2554 -4906.0158 534946.2959 13218.2554 -4906.0158
ENERGY: 140 309.4212 708.8649 2913.8026 0.0000 -174236.7123 14731.4796 326.6408 0.0000 0.0000 -155246.5033 0.0000 -155246.5033 -155246.5033 0.0000 12971.5219 -5303.2528 534946.2959 12971.5219 -5303.2528
ENERGY: 160 265.3184 683.1377 2923.1786 0.0000 -176275.7439 14757.3599 382.9047 0.0000 0.0000 -157263.8445 0.0000 -157263.8445 -157263.8445 0.0000 12740.9083 -5743.0556 534946.2959 12740.9083 -5743.0556
ENERGY: 180 268.8386 744.0949 2928.5659 0.0000 -178995.6691 15023.5579 473.3160 0.0000 0.0000 -159557.2958 0.0000 -159557.2958 -159557.2958 0.0000 12521.5917 -6223.8272 534946.2959 12521.5917 -6223.8272
ENERGY: 200 238.9493 694.0826 2941.3660 0.0000 -181556.5152 15587.1095 546.2706 0.0000 0.0000 -161548.7371 0.0000 -161548.7371 -161548.7371 0.0000 12582.6507 -6424.5513 534946.2959 12582.6507 -6424.5513
TCL: Setting parameter constraintScaling to 2.5
TCL: Minimizing for 100 steps
ETITLE: TS BOND ANGLE DIHED IMPRP ELECT VDW BOUNDARY MISC KINETIC TOTAL TEMP POTENTIAL TOTAL3 TEMPAVG PRESSURE GPRESSURE VOLUME PRESSAVG GPRESSAVG
ENERGY: 200 238.9493 694.0826 2941.3660 0.0000 -181556.5152 15587.1095 273.1353 0.0000 0.0000 -161821.8724 0.0000 -161821.8724 -161821.8724 0.0000 13229.5641 -25655.3767 534946.2959 13229.5641 -25655.3767
ENERGY: 220 251.1260 679.9226 2933.0267 0.0000 -182083.0516 15470.9810 338.5709 0.0000 0.0000 -162409.4244 0.0000 -162409.4244 -162409.4244 0.0000 12967.9898 -6094.6858 534946.2959 12967.9898 -6094.6858
ENERGY: 240 139.3060 665.8052 2928.6037 0.0000 -182462.6712 15494.2850 343.5835 0.0000 0.0000 -162891.0879 0.0000 -162891.0879 -162891.0879 0.0000 13034.3464 -6107.5995 534946.2959 13034.3464 -6107.5995
ENERGY: 260 164.5279 683.7651 2921.6064 0.0000 -183941.0007 15800.1324 385.4829 0.0000 0.0000 -163985.4860 0.0000 -163985.4860 -163985.4860 0.0000 13031.7949 -6246.5024 534946.2959 13031.7949 -6246.5024
ENERGY: 280 168.9930 700.8737 2917.5989 0.0000 -185422.4948 16228.6742 454.8509 0.0000 0.0000 -164951.5041 0.0000 -164951.5041 -164951.5041 0.0000 13143.3689 -6338.5586 534946.2959 13143.3689 -6338.5586
ENERGY: 300 126.6751 639.5387 2916.2508 0.0000 -186094.4790 16445.6880 481.3777 0.0000 0.0000 -165484.9487 0.0000 -165484.9487 -165484.9487 0.0000 13207.6766 -6342.6615 534946.2959 13207.6766 -6342.6615
TCL: Setting parameter constraintScaling to 1.25
TCL: Minimizing for 100 steps
ETITLE: TS BOND ANGLE DIHED IMPRP ELECT VDW BOUNDARY MISC KINETIC TOTAL TEMP POTENTIAL TOTAL3 TEMPAVG PRESSURE GPRESSURE VOLUME PRESSAVG GPRESSAVG
ENERGY: 300 126.6751 639.5387 2916.2508 0.0000 -186094.4790 16445.6880 240.6889 0.0000 0.0000 -165725.6375 0.0000 -165725.6375 -165725.6375 0.0000 13656.0232 -26352.6285 534946.2959 13656.0232 -26352.6285
ENERGY: 320 248.0878 662.0473 2911.8582 0.0000 -186749.6021 16600.7966 282.0687 0.0000 0.0000 -166044.7434 0.0000 -166044.7434 -166044.7434 0.0000 13578.0083 -6031.9741 534946.2959 13578.0083 -6031.9741
ENERGY: 340 138.1489 625.4195 2909.2977 0.0000 -187248.9568 16772.5857 289.0416 0.0000 0.0000 -166514.4633 0.0000 -166514.4633 -166514.4633 0.0000 13699.0839 -5970.8779 534946.2959 13699.0839 -5970.8779
ENERGY: 360 157.9899 665.8318 2908.3454 0.0000 -188739.8867 17280.6120 343.4506 0.0000 0.0000 -167383.6571 0.0000 -167383.6571 -167383.6571 0.0000 13866.1332 -5991.9565 534946.2959 13866.1332 -5991.9565
ENERGY: 380 150.4780 641.0659 2900.4126 0.0000 -190336.6548 17905.8608 398.3701 0.0000 0.0000 -168340.4674 0.0000 -168340.4674 -168340.4674 0.0000 14026.7220 -5971.4029 534946.2959 14026.7220 -5971.4029
ENERGY: 400 131.3233 639.4510 2898.9986 0.0000 -190585.3683 17986.2292 402.6092 0.0000 0.0000 -168526.7570 0.0000 -168526.7570 -168526.7570 0.0000 14136.0031 -5925.1674 534946.2959 14136.0031 -5925.1674
TCL: Setting parameter constraintScaling to 0.625
TCL: Minimizing for 100 steps
ETITLE: TS BOND ANGLE DIHED IMPRP ELECT VDW BOUNDARY MISC KINETIC TOTAL TEMP POTENTIAL TOTAL3 TEMPAVG PRESSURE GPRESSURE VOLUME PRESSAVG GPRESSAVG
ENERGY: 400 131.3233 639.4510 2898.9986 0.0000 -190585.3683 17986.2292 201.3046 0.0000 0.0000 -168728.0616 0.0000 -168728.0616 -168728.0616 0.0000 14438.0484 -26617.5642 534946.2959 14438.0484 -26617.5642
ENERGY: 420 145.8272 634.2459 2893.9117 0.0000 -191245.3232 18136.5194 235.8294 0.0000 0.0000 -169198.9896 0.0000 -169198.9896 -169198.9896 0.0000 14354.6913 -5754.5087 534946.2959 14354.6913 -5754.5087
ENERGY: 440 230.8309 653.9533 2891.0172 0.0000 -191584.0363 18261.8324 237.7605 0.0000 0.0000 -169308.6419 0.0000 -169308.6419 -169308.6419 0.0000 14464.3270 -5697.6281 534946.2959 14464.3270 -5697.6281
ENERGY: 460 167.7139 634.6989 2890.3175 0.0000 -192440.0731 18574.2526 257.2667 0.0000 0.0000 -169915.8236 0.0000 -169915.8236 -169915.8236 0.0000 14571.1877 -5678.1560 534946.2959 14571.1877 -5678.1560
ENERGY: 480 148.6534 634.8200 2883.3160 0.0000 -193395.0569 18924.5205 291.3896 0.0000 0.0000 -170512.3573 0.0000 -170512.3573 -170512.3573 0.0000 14698.4202 -5662.6078 534946.2959 14698.4202 -5662.6078
ENERGY: 500 188.8400 700.7498 2881.4906 0.0000 -193944.1497 19157.0941 291.7380 0.0000 0.0000 -170724.2372 0.0000 -170724.2372 -170724.2372 0.0000 14828.8668 -5599.5872 534946.2959 14828.8668 -5599.5872
TCL: Setting parameter constraintScaling to 0.3125
TCL: Minimizing for 100 steps
ETITLE: TS BOND ANGLE DIHED IMPRP ELECT VDW BOUNDARY MISC KINETIC TOTAL TEMP POTENTIAL TOTAL3 TEMPAVG PRESSURE GPRESSURE VOLUME PRESSAVG GPRESSAVG
ENERGY: 500 188.8400 700.7498 2881.4906 0.0000 -193944.1497 19157.0941 145.8690 0.0000 0.0000 -170870.1061 0.0000 -170870.1061 -170870.1061 0.0000 15018.2737 -26835.5763 534946.2959 15018.2737 -26835.5763
ENERGY: 520 161.5810 666.2896 2883.9396 0.0000 -194264.2304 19234.0619 163.8994 0.0000 0.0000 -171154.4589 0.0000 -171154.4589 -171154.4589 0.0000 14972.2476 -5479.6040 534946.2959 14972.2476 -5479.6040
ENERGY: 540 327.5401 673.5321 2874.1213 0.0000 -195246.1326 19605.9100 188.5665 0.0000 0.0000 -171576.4627 0.0000 -171576.4627 -171576.4627 0.0000 15107.0303 -5442.0933 534946.2959 15107.0303 -5442.0933
ENERGY: 560 180.7891 658.1875 2872.2541 0.0000 -196036.0957 19909.2386 202.7912 0.0000 0.0000 -172212.8353 0.0000 -172212.8353 -172212.8353 0.0000 15297.0880 -5362.9351 534946.2959 15297.0880 -5362.9351
ENERGY: 580 195.8949 684.9894 2869.6703 0.0000 -196328.9737 20013.8909 212.0910 0.0000 0.0000 -172352.4371 0.0000 -172352.4371 -172352.4371 0.0000 15314.4155 -5381.0902 534946.2959 15314.4155 -5381.0902
ENERGY: 600 188.2166 699.2231 2873.2121 0.0000 -197339.9504 20409.8557 227.4469 0.0000 0.0000 -172941.9959 0.0000 -172941.9959 -172941.9959 0.0000 15427.7088 -5353.7931 534946.2959 15427.7088 -5353.7931
TCL: Setting parameter constraintScaling to 0.15625
TCL: Minimizing for 100 steps
ETITLE: TS BOND ANGLE DIHED IMPRP ELECT VDW BOUNDARY MISC KINETIC TOTAL TEMP POTENTIAL TOTAL3 TEMPAVG PRESSURE GPRESSURE VOLUME PRESSAVG GPRESSAVG
ENERGY: 600 188.2166 699.2231 2873.2121 0.0000 -197339.9504 20409.8557 113.7234 0.0000 0.0000 -173055.7193 0.0000 -173055.7193 -173055.7193 0.0000 15552.0963 -27097.4544 534946.2959 15552.0963 -27097.4544
ENERGY: 620 323.2934 790.2588 2881.6227 0.0000 -197711.2808 20588.4819 116.3147 0.0000 0.0000 -173011.3094 0.0000 -173011.3094 -173011.3094 0.0000 15604.1275 -5178.8130 534946.2959 15604.1275 -5178.8130
ENERGY: 640 228.8102 698.6601 2861.0833 0.0000 -198352.8153 20786.3587 132.6927 0.0000 0.0000 -173645.2104 0.0000 -173645.2104 -173645.2104 0.0000 15762.5328 -5169.2423 534946.2959 15762.5328 -5169.2423
ENERGY: 660 176.4700 675.4307 2851.7905 0.0000 -198970.1850 21008.3805 142.6883 0.0000 0.0000 -174115.4251 0.0000 -174115.4251 -174115.4251 0.0000 15851.5819 -5143.9124 534946.2959 15851.5819 -5143.9124
ENERGY: 680 274.9966 695.8906 2850.8870 0.0000 -199316.0970 21139.9669 145.8243 0.0000 0.0000 -174208.5316 0.0000 -174208.5316 -174208.5316 0.0000 15928.8640 -5136.1656 534946.2959 15928.8640 -5136.1656
ENERGY: 700 183.5239 670.0324 2854.5933 0.0000 -199467.0725 21202.3567 146.3931 0.0000 0.0000 -174410.1731 0.0000 -174410.1731 -174410.1731 0.0000 15947.9341 -5089.1945 534946.2959 15947.9341 -5089.1945
TCL: Setting parameter constraintScaling to 0.078125
TCL: Minimizing for 100 steps
ETITLE: TS BOND ANGLE DIHED IMPRP ELECT VDW BOUNDARY MISC KINETIC TOTAL TEMP POTENTIAL TOTAL3 TEMPAVG PRESSURE GPRESSURE VOLUME PRESSAVG GPRESSAVG
ENERGY: 700 183.5239 670.0324 2854.5933 0.0000 -199467.0725 21202.3567 73.1966 0.0000 0.0000 -174483.3697 0.0000 -174483.3697 -174483.3697 0.0000 16020.0460 -27135.3068 534946.2959 16020.0460 -27135.3068
ENERGY: 720 184.3951 682.2305 2844.5545 0.0000 -199840.7278 21336.1583 77.1625 0.0000 0.0000 -174716.2270 0.0000 -174716.2270 -174716.2270 0.0000 16063.1576 -5019.8228 534946.2959 16063.1576 -5019.8228
ENERGY: 740 185.3078 668.3278 2845.1817 0.0000 -200293.1024 21489.9964 81.0924 0.0000 0.0000 -175023.1963 0.0000 -175023.1963 -175023.1963 0.0000 16151.4707 -5002.1066 534946.2959 16151.4707 -5002.1066
ENERGY: 760 159.7357 649.0856 2838.7745 0.0000 -200360.1642 21518.6888 81.2583 0.0000 0.0000 -175112.6214 0.0000 -175112.6214 -175112.6214 0.0000 16183.7522 -4974.1813 534946.2959 16183.7522 -4974.1813
ENERGY: 780 181.4579 670.5460 2835.3841 0.0000 -200913.2707 21733.9295 85.9179 0.0000 0.0000 -175406.0354 0.0000 -175406.0354 -175406.0354 0.0000 16274.9143 -4936.1764 534946.2959 16274.9143 -4936.1764
ENERGY: 800 183.6023 684.0515 2840.9241 0.0000 -202035.7399 22190.2048 97.2697 0.0000 0.0000 -176039.6875 0.0000 -176039.6875 -176039.6875 0.0000 16484.6486 -4875.4989 534946.2959 16484.6486 -4875.4989
TCL: Setting parameter constraintScaling to 0.0390625
TCL: Minimizing for 100 steps
ETITLE: TS BOND ANGLE DIHED IMPRP ELECT VDW BOUNDARY MISC KINETIC TOTAL TEMP POTENTIAL TOTAL3 TEMPAVG PRESSURE GPRESSURE VOLUME PRESSAVG GPRESSAVG
ENERGY: 800 183.6023 684.0515 2840.9241 0.0000 -202035.7399 22190.2048 48.6348 0.0000 0.0000 -176088.3223 0.0000 -176088.3223 -176088.3223 0.0000 16527.4694 -27245.1308 534946.2959 16527.4694 -27245.1308
ENERGY: 820 164.0631 655.6591 2826.0322 0.0000 -202151.9534 22239.8171 48.6839 0.0000 0.0000 -176217.6981 0.0000 -176217.6981 -176217.6981 0.0000 16577.3358 -4790.8176 534946.2959 16577.3358 -4790.8176
ENERGY: 840 181.1799 661.1596 2828.9588 0.0000 -202583.2399 22398.8736 51.2480 0.0000 0.0000 -176461.8199 0.0000 -176461.8199 -176461.8199 0.0000 16640.3696 -4780.4230 534946.2959 16640.3696 -4780.4230
ENERGY: 860 191.2624 674.7701 2824.8446 0.0000 -202964.5196 22551.1151 52.6478 0.0000 0.0000 -176669.8795 0.0000 -176669.8795 -176669.8795 0.0000 16743.9238 -4723.1697 534946.2959 16743.9238 -4723.1697
ENERGY: 880 183.9643 689.8920 2827.1038 0.0000 -203909.5983 22982.6169 58.1582 0.0000 0.0000 -177167.8631 0.0000 -177167.8631 -177167.8631 0.0000 16925.4736 -4640.8789 534946.2959 16925.4736 -4640.8789
ENERGY: 900 163.1300 657.3507 2816.3761 0.0000 -204238.4411 23117.6018 59.6077 0.0000 0.0000 -177424.3749 0.0000 -177424.3749 -177424.3749 0.0000 17016.1240 -4594.7054 534946.2959 17016.1240 -4594.7054
TCL: Setting parameter constraintScaling to 0.01953125
TCL: Minimizing for 100 steps
ETITLE: TS BOND ANGLE DIHED IMPRP ELECT VDW BOUNDARY MISC KINETIC TOTAL TEMP POTENTIAL TOTAL3 TEMPAVG PRESSURE GPRESSURE VOLUME PRESSAVG GPRESSAVG
ENERGY: 900 163.1300 657.3507 2816.3761 0.0000 -204238.4411 23117.6018 29.8039 0.0000 0.0000 -177454.1787 0.0000 -177454.1787 -177454.1787 0.0000 17040.6147 -27262.9751 534946.2959 17040.6147 -27262.9751
ENERGY: 920 220.4292 669.4223 2818.1793 0.0000 -204498.8818 23223.6812 30.9022 0.0000 0.0000 -177536.2675 0.0000 -177536.2675 -177536.2675 0.0000 17070.7459 -4572.8956 534946.2959 17070.7459 -4572.8956
ENERGY: 940 163.2910 651.3274 2812.2445 0.0000 -204645.8712 23282.1695 31.0872 0.0000 0.0000 -177705.7516 0.0000 -177705.7516 -177705.7516 0.0000 17123.4239 -4537.1466 534946.2959 17123.4239 -4537.1466
ENERGY: 960 168.9338 660.0634 2814.7273 0.0000 -205230.9683 23533.2487 32.9477 0.0000 0.0000 -178021.0473 0.0000 -178021.0473 -178021.0473 0.0000 17239.1330 -4488.3350 534946.2959 17239.1330 -4488.3350
ENERGY: 980 165.5669 654.3299 2809.5431 0.0000 -205407.0922 23610.5194 33.4135 0.0000 0.0000 -178133.7194 0.0000 -178133.7194 -178133.7194 0.0000 17287.1457 -4462.2367 534946.2959 17287.1457 -4462.2367
ENERGY: 1000 175.9239 669.3319 2808.9132 0.0000 -205908.9501 23862.6785 35.5696 0.0000 0.0000 -178356.5331 0.0000 -178356.5331 -178356.5331 0.0000 17406.4432 -4403.3893 534946.2959 17406.4432 -4403.3893
TCL: Setting parameter constraintScaling to 0
TCL: Minimizing for 5000 steps
ETITLE: TS BOND ANGLE DIHED IMPRP ELECT VDW BOUNDARY MISC KINETIC TOTAL TEMP POTENTIAL TOTAL3 TEMPAVG PRESSURE GPRESSURE VOLUME PRESSAVG GPRESSAVG
ENERGY: 1000 175.9239 669.3319 2808.9132 0.0000 -205908.9501 23862.6785 0.0000 0.0000 0.0000 -178392.1027 0.0000 -178392.1027 -178392.1027 0.0000 17433.8533 -27262.6221 534946.2959 17433.8533 -27262.6221
ENERGY: 2000 167.4757 667.0359 2801.2877 0.0000 -214805.6755 27856.6676 0.0000 0.0000 0.0000 -183313.2086 0.0000 -183313.2086 -183313.2086 0.0000 19575.5194 -3225.2625 534946.2959 19575.5194 -3225.2625
ENERGY: 3000 168.1307 667.1156 2794.1188 0.0000 -217514.0379 28866.4970 0.0000 0.0000 0.0000 -185018.1757 0.0000 -185018.1757 -185018.1757 0.0000 20091.9013 -2998.9603 534946.2959 20091.9013 -2998.9603
ENERGY: 4000 166.8139 665.7831 2788.7545 0.0000 -218682.3387 29332.0160 0.0000 0.0000 0.0000 -185728.9712 0.0000 -185728.9712 -185728.9712 0.0000 20343.2341 -2862.7171 534946.2959 20343.2341 -2862.7171
ENERGY: 5000 166.2840 666.3839 2787.5984 0.0000 -219417.7414 29600.1235 0.0000 0.0000 0.0000 -186197.3515 0.0000 -186197.3515 -186197.3515 0.0000 20480.0505 -2806.7944 534946.2959 20480.0505 -2806.7944
ENERGY: 6000 165.6888 664.9251 2786.9177 0.0000 -219972.9748 29847.7456 0.0000 0.0000 0.0000 -186507.6976 0.0000 -186507.6976 -186507.6976 0.0000 20615.0966 -2735.6051 534946.2959 20615.0966 -2735.6051
