Info: SIMULATION PARAMETERS:
Info: TIMESTEP               1
Info: NUMBER OF STEPS        0
Info: STEPS PER CYCLE        10
Info: PERIODIC CELL BASIS 1  72.449 0 0
Info: PERIODIC CELL BASIS 2  0 93.247 0
Info: PERIODIC CELL BASIS 3  0 0 79.185
Info: PERIODIC CELL CENTER   -0.248 -0.156 -0.047
Info: WRAPPING WATERS AROUND PERIODIC BOUNDARIES ON OUTPUT.
Info: WRAPPING ALL CLUSTERS AROUND PERIODIC BOUNDARIES ON OUTPUT.
Info: FIRST LDB TIMESTEP     50
Info: LAST LDB TIMESTEP     -1
Info: HOM BACKGROUND SCALING 1
Info: PME BACKGROUND SCALING 1
Info: MIN ATOMS PER PATCH    40
Info: VELOCITY FILE          ../replicas/rep86/equilibration/eq1.vel
Info: CENTER OF MASS MOVING INITIALLY? NO
Info: DIELECTRIC             1
Info: EXCLUDE                SCALED ONE-FOUR
Info: 1-4 ELECTROSTATICS SCALED BY 0.833333
Info: MODIFIED 1-4 VDW PARAMETERS WILL BE USED
Info: DCD FILENAME           ../replicas/rep86/equilibration/eq2.dcd
Info: DCD FREQUENCY          5000
Info: DCD FIRST STEP         5000
Info: DCD FILE WILL CONTAIN UNIT CELL DATA
Info: XST FILENAME           ../replicas/rep86/equilibration/eq2.xst
Info: XST FREQUENCY          5000
Info: NO VELOCITY DCD OUTPUT
Info: NO FORCE DCD OUTPUT
Info: OUTPUT FILENAME        ../replicas/rep86/equilibration/eq2
Info: RESTART FILENAME       ../replicas/rep86/equilibration/eq2.restart
Info: RESTART FREQUENCY      5000
Info: BINARY RESTART FILES WILL BE USED
Info: SWITCHING ACTIVE
Info: SWITCHING ON           10
Info: SWITCHING OFF          12
Info: PAIRLIST DISTANCE      13.5
Info: PAIRLIST SHRINK RATE   0.01
Info: PAIRLIST GROW RATE     0.01
Info: PAIRLIST TRIGGER       0.3
Info: PAIRLISTS PER CYCLE    2
Info: PAIRLISTS ENABLED
Info: MARGIN                 0.48
Info: HYDROGEN GROUP CUTOFF  2.5
Info: PATCH DIMENSION        16.48
Info: ENERGY OUTPUT STEPS    500
Info: CROSSTERM ENERGY INCLUDED IN DIHEDRAL
Info: TIMING OUTPUT STEPS    5000
Info: PRESSURE OUTPUT STEPS  500
Info: HARMONIC CONSTRAINTS ACTIVE
Info: HARMONIC CONS EXP      2
Info: HARMONIC CONS SCALING  10
Info: LANGEVIN DYNAMICS ACTIVE
Info: LANGEVIN TEMPERATURE   300
Info: LANGEVIN USING BBK INTEGRATOR
Info: LANGEVIN DAMPING COEFFICIENT IS 5 INVERSE PS
Info: LANGEVIN DYNAMICS NOT APPLIED TO HYDROGENS
Info: BERENDSEN PRESSURE COUPLING ACTIVE
Info:     TARGET PRESSURE IS 1 BAR
Info:     COMPRESSIBILITY ESTIMATE IS 4.57e-05 BAR^(-1)
Info:     RELAXATION TIME IS 100 FS
Info:     APPLIED EVERY 2 STEPS
Info:     PRESSURE CONTROL IS GROUP-BASED
Info:       CELL FLUCTUATION IS ISOTROPIC
Info: PARTICLE MESH EWALD (PME) ACTIVE
Info: PME TOLERANCE               1e-06
Info: PME EWALD COEFFICIENT       0.257952
Info: PME INTERPOLATION ORDER     4
Info: PME GRID DIMENSIONS         80 96 80
Info: PME MAXIMUM GRID SPACING    1
Info: FULL ELECTROSTATIC EVALUATION FREQUENCY      2
Info: USING VERLET I (r-RESPA) MTS SCHEME.
Info: C1 SPLITTING OF LONG RANGE ELECTROSTATICS
Info: PLACING ATOMS IN PATCHES BY HYDROGEN GROUPS
Info: RIGID BONDS TO HYDROGEN : WATER
Info:         ERROR TOLERANCE : 1e-05
Info:          MAX ITERATIONS : 100
Info: RIGID WATER USING SETTLE ALGORITHM
Info: RANDOM NUMBER SEED     1503693599
Info: USE HYDROGEN BONDS?    NO
Info: Using AMBER format force field!
Info: AMBER PARM FILE        ../build/complex.top
Info: COORDINATE PDB         ../replicas/rep86/equilibration/eq1.coor
Info: Exclusions in PARM file will be ignored!
Info: SCNB (VDW SCALING)     2
Info: USING ARITHMETIC MEAN TO COMBINE L-J SIGMA PARAMETERS
Info: SUMMARY OF PARAMETERS:
Info: 71 BONDS
Info: 145 ANGLES
Info: 76 DIHEDRAL
Info: 0 IMPROPER
Info: 0 CROSSTERM
Info: 0 VDW
Info: 190 VDW_PAIRS
Info: 0 NBTHOLE_PAIRS
Info: STRUCTURE SUMMARY:
Info: 49394 ATOMS
Info: 49448 BONDS
Info: 8698 ANGLES
Info: 18780 DIHEDRALS
Info: 0 IMPROPERS
Info: 0 CROSSTERMS
Info: 0 EXCLUSIONS
Info: 2336 CONSTRAINTS
Info: 44667 RIGID BONDS
Info: 103515 DEGREES OF FREEDOM
Info: 17225 HYDROGEN GROUPS
Info: 4 ATOMS IN LARGEST HYDROGEN GROUP
Info: 17225 MIGRATION GROUPS
Info: 4 ATOMS IN LARGEST MIGRATION GROUP
Info: TOTAL MASS = 301478 amu
Info: TOTAL CHARGE = 1.00115e-05 e
Info: MASS DENSITY = 0.935846 g/cm^3
Info: ATOM DENSITY = 0.0923345 atoms/A^3
Info: ADDED 70656 IMPLICIT EXCLUSIONS
Info: NONBONDED TABLE R-SQUARED SPACING: 0.0625
Info: NONBONDED TABLE SIZE: 769 POINTS
Info: REMOVING COM VELOCITY -0.0303967 -0.0112708 -0.0404417
TCL: Running for 5000 steps
ETITLE: TS BOND ANGLE DIHED IMPRP ELECT VDW BOUNDARY MISC KINETIC TOTAL TEMP POTENTIAL TOTAL3 TEMPAVG PRESSURE GPRESSURE VOLUME PRESSAVG GPRESSAVG
ENERGY: 0 406.4238 1230.9098 2922.0261 0.0000 -212739.8065 29463.5020 0.0000 0.0000 10017.0028 -168699.9420 97.3924 -178716.9447 -168690.2862 97.3924 -2386.3817 -2489.7237 534946.2959 -2386.3817 -2489.7237
ENERGY: 1000 1236.1063 2026.5810 3090.8305 0.0000 -193485.2777 26424.1139 779.8339 0.0000 24378.5486 -135549.2634 237.0254 -159927.8120 -135533.1579 219.4807 -29.4897 -26.3912 522342.4166 -19.4285 -19.4893
ENERGY: 2000 1477.6193 2112.0045 3135.5482 0.0000 -183994.8832 23229.9172 812.7026 0.0000 28030.7909 -125196.3005 272.5351 -153227.0914 -125148.4500 265.5838 -133.5366 -42.5932 514600.3613 -40.5837 -41.1061
ENERGY: 3000 1568.2454 2296.5106 3127.5775 0.0000 -179246.1829 21762.5193 812.4741 0.0000 29685.4524 -119993.4038 288.6229 -149678.8562 -119964.6922 285.8233 -85.0801 -0.8249 509975.4667 -27.4336 -27.5715
ENERGY: 4000 1537.2044 2181.1037 3144.3736 0.0000 -176268.7138 20455.7076 816.5529 0.0000 30531.0511 -117602.7204 296.8444 -148133.7716 -117550.9492 294.8033 -130.2437 -19.2363 507809.4053 -2.0379 -1.9581
ENERGY: 5000 1588.1153 2250.0995 3156.3654 0.0000 -175810.3784 20517.8293 806.2291 0.0000 30603.5404 -116888.1994 297.5492 -147491.7398 -116833.2495 297.0825 -125.3652 15.6554 505932.4994 3.8820 4.2144
TCL: Setting parameter constraintScaling to 5.0
TCL: Running for 5000 steps
ETITLE: TS BOND ANGLE DIHED IMPRP ELECT VDW BOUNDARY MISC KINETIC TOTAL TEMP POTENTIAL TOTAL3 TEMPAVG PRESSURE GPRESSURE VOLUME PRESSAVG GPRESSAVG
ENERGY: 5000 1588.1153 2250.0995 3156.3654 0.0000 -175810.3784 20517.8293 403.1145 0.0000 30601.4857 -117293.3686 297.5292 -147894.8543 -117254.4791 297.5292 -102.1513 38.6950 505932.4994 -102.1513 38.6950
ENERGY: 6000 1590.8874 2291.9772 3140.3243 0.0000 -175776.2934 20339.6691 620.9027 0.0000 30771.7719 -117020.7608 299.1849 -147792.5327 -116972.7027 298.8529 12.7782 -8.2433 504478.4465 -11.5176 -11.3883
ENERGY: 7000 1580.9135 2378.8902 3181.6995 0.0000 -175622.3353 20144.4619 668.5120 0.0000 30982.4075 -116685.4506 301.2328 -147667.8581 -116632.4600 299.7663 -39.5131 -28.8249 502789.6606 -0.4805 -0.0584
ENERGY: 8000 1599.5592 2293.5571 3166.7186 0.0000 -175557.2612 20115.4936 664.9843 0.0000 30515.1558 -117201.7926 296.6898 -147716.9484 -117162.0559 299.0168 -63.2121 23.4419 502000.6048 2.9555 2.9540
ENERGY: 9000 1597.9792 2337.0435 3177.5681 0.0000 -175723.3820 20168.0255 654.7848 0.0000 30493.1362 -117294.8447 296.4758 -147787.9809 -117242.2429 297.8272 11.7356 20.9647 500570.1406 -14.6949 -14.3060
ENERGY: 10000 1559.6315 2285.1777 3175.3160 0.0000 -175500.0043 19964.3153 660.3264 0.0000 30812.7332 -117042.5043 299.5831 -147855.2375 -117001.8995 298.6199 -97.1255 -11.2534 500850.6552 7.3444 6.9578
TCL: Setting parameter constraintScaling to 2.5
TCL: Running for 5000 steps
ETITLE: TS BOND ANGLE DIHED IMPRP ELECT VDW BOUNDARY MISC KINETIC TOTAL TEMP POTENTIAL TOTAL3 TEMPAVG PRESSURE GPRESSURE VOLUME PRESSAVG GPRESSAVG
ENERGY: 10000 1559.6315 2285.1777 3175.3160 0.0000 -175500.0044 19964.3153 330.1632 0.0000 30810.6750 -117374.7257 299.5631 -148185.4007 -117330.5046 299.5631 -153.5009 -65.8666 500850.6552 -153.5009 -65.8666
ENERGY: 11000 1545.6370 2361.2994 3180.2899 0.0000 -175556.4732 20043.6563 515.1334 0.0000 30806.3465 -117104.1107 299.5210 -147910.4572 -117063.4596 299.2330 -52.2322 12.9990 500977.1315 -3.0442 -3.0569
ENERGY: 12000 1618.9926 2354.7126 3182.6090 0.0000 -175611.2310 20098.6477 520.0412 0.0000 30827.3164 -117008.9115 299.7249 -147836.2279 -116965.2810 300.6173 -57.3683 29.9206 499838.8985 -1.8154 -1.3869
ENERGY: 13000 1645.9968 2336.8971 3204.6802 0.0000 -175289.2336 19751.1155 503.0475 0.0000 30645.8485 -117201.6479 297.9605 -147847.4964 -117147.1932 300.1299 -3.1003 -17.8107 500628.4300 -5.3022 -5.7687
ENERGY: 14000 1617.0899 2319.3328 3157.1642 0.0000 -175498.5983 20111.5312 519.5419 0.0000 30930.8347 -116843.1036 300.7314 -147773.9383 -116790.8265 300.2367 -19.2535 49.7097 499215.1170 -5.5591 -5.2235
ENERGY: 15000 1603.6156 2387.2417 3158.6079 0.0000 -175607.9314 19969.5685 497.0367 0.0000 30793.3044 -117198.5567 299.3942 -147991.8611 -117160.6750 298.4750 -129.8299 -28.2171 498826.8409 -11.9355 -12.1072
TCL: Setting parameter constraintScaling to 1.25
TCL: Running for 5000 steps
ETITLE: TS BOND ANGLE DIHED IMPRP ELECT VDW BOUNDARY MISC KINETIC TOTAL TEMP POTENTIAL TOTAL3 TEMPAVG PRESSURE GPRESSURE VOLUME PRESSAVG GPRESSAVG
ENERGY: 15000 1603.6156 2387.2417 3158.6079 0.0000 -175607.9314 19969.5685 248.5183 0.0000 30791.2452 -117449.1342 299.3742 -148240.3794 -117404.8084 299.3742 -175.1125 -81.0986 498826.8409 -175.1125 -81.0986
ENERGY: 16000 1579.7770 2391.7126 3180.2869 0.0000 -175972.9950 20159.5610 397.4581 0.0000 30595.1901 -117669.0093 297.4680 -148264.1993 -117626.7920 299.1684 45.1193 88.6730 497760.6334 -8.9990 -8.7416
ENERGY: 17000 1611.8299 2412.1391 3198.9510 0.0000 -175525.8887 19878.5850 406.4932 0.0000 30615.8379 -117402.0527 297.6688 -148017.8906 -117353.8792 299.0681 -38.9086 -134.3893 498751.4248 12.3767 12.5519
ENERGY: 18000 1650.0354 2296.8947 3193.0832 0.0000 -175683.6521 20304.4023 412.1686 0.0000 30817.1848 -117009.8830 299.6264 -147827.0678 -116964.3114 299.5209 -8.2262 8.4725 499241.1409 -5.8581 -5.9663
ENERGY: 19000 1573.0014 2393.9034 3220.1215 0.0000 -175733.2088 20094.2011 416.6007 0.0000 30945.3099 -117090.0707 300.8721 -148035.3806 -117064.0621 299.2517 -86.9861 -28.9404 499621.6059 -0.8826 -0.8320
ENERGY: 20000 1667.2890 2348.0300 3161.9602 0.0000 -175600.3989 20032.7298 405.4894 0.0000 30983.9189 -117000.9816 301.2475 -147984.9005 -116964.7267 300.5308 -68.3741 13.5882 498109.3595 6.2752 6.2428
TCL: Setting parameter constraintScaling to 0.625
TCL: Running for 5000 steps
ETITLE: TS BOND ANGLE DIHED IMPRP ELECT VDW BOUNDARY MISC KINETIC TOTAL TEMP POTENTIAL TOTAL3 TEMPAVG PRESSURE GPRESSURE VOLUME PRESSAVG GPRESSAVG
ENERGY: 20000 1667.2890 2348.0300 3161.9602 0.0000 -175600.3989 20032.7298 202.7447 0.0000 30981.8670 -117205.7782 301.2275 -148187.6452 -117158.5380 301.2275 -118.0639 -43.2898 498109.3595 -118.0639 -43.2898
ENERGY: 21000 1620.3116 2401.7074 3194.5403 0.0000 -175649.5012 20111.6822 324.1106 0.0000 30793.1280 -117204.0210 299.3925 -147997.1491 -117169.5950 299.7324 15.3893 67.0913 498800.3544 -1.9606 -2.0695
ENERGY: 22000 1662.8754 2446.6949 3201.8012 0.0000 -176210.1842 20331.3689 285.3969 0.0000 30763.7774 -117518.2695 299.1071 -148282.0470 -117472.0206 298.8438 -10.6968 2.5800 498415.7139 5.2563 5.0698
ENERGY: 23000 1645.1514 2389.8277 3206.9403 0.0000 -176150.4841 20287.0738 313.1641 0.0000 30630.2480 -117678.0787 297.8089 -148308.3267 -117633.9634 298.8709 -105.8346 23.7554 498448.7288 -3.5826 -2.7455
ENERGY: 24000 1581.8131 2449.8989 3233.7042 0.0000 -175788.6873 20112.7819 321.4449 0.0000 30946.2369 -117142.8073 300.8811 -148089.0442 -117117.0130 299.9259 54.1185 -8.4492 496441.5515 -3.9050 -3.8853
ENERGY: 25000 1646.9539 2357.7129 3228.1086 0.0000 -175667.3584 20004.7100 315.5357 0.0000 30874.6407 -117239.6967 300.1850 -148114.3374 -117200.4635 300.7555 -112.5963 -36.2663 498832.7560 14.2842 14.8534
TCL: Setting parameter constraintScaling to 0.3125
TCL: Running for 5000 steps
ETITLE: TS BOND ANGLE DIHED IMPRP ELECT VDW BOUNDARY MISC KINETIC TOTAL TEMP POTENTIAL TOTAL3 TEMPAVG PRESSURE GPRESSURE VOLUME PRESSAVG GPRESSAVG
ENERGY: 25000 1646.9539 2357.7129 3228.1086 0.0000 -175667.3584 20004.7100 157.7678 0.0000 30872.6255 -117399.4797 300.1654 -148272.1052 -117355.3297 300.1654 -141.5421 -68.5731 498832.7560 -141.5421 -68.5731
ENERGY: 26000 1632.3469 2401.9697 3223.5097 0.0000 -175699.5275 20224.1723 229.1170 0.0000 30670.7929 -117317.6191 298.2031 -147988.4120 -117277.4169 299.7629 43.7844 66.9342 499731.8449 13.3735 13.4167
ENERGY: 27000 1620.9718 2362.7019 3251.4634 0.0000 -175729.5524 20062.3443 252.3996 0.0000 30664.8131 -117514.8583 298.1449 -148179.6714 -117469.4011 299.7679 137.8684 131.5501 496591.1796 -2.9581 -2.6897
ENERGY: 28000 1641.8819 2366.4711 3226.5238 0.0000 -175686.9997 19882.5723 247.8882 0.0000 30762.3060 -117559.3563 299.0928 -148321.6623 -117509.3627 299.1126 -82.5875 -51.3179 497505.4888 0.0960 0.1552
ENERGY: 29000 1655.5391 2383.6398 3191.5152 0.0000 -175346.3228 19824.6743 243.3503 0.0000 30710.2770 -117337.3272 298.5870 -148047.6042 -117281.4015 300.4124 -129.9886 -81.9222 496674.6627 -7.0883 -7.3166
ENERGY: 30000 1628.5127 2447.0300 3240.5890 0.0000 -175875.1286 20097.4162 263.4952 0.0000 30631.0324 -117567.0530 297.8165 -148198.0854 -117511.8527 299.3888 -50.0603 65.0470 496669.4896 3.4214 3.9933
TCL: Setting parameter constraintScaling to 0.15625
TCL: Running for 5000 steps
ETITLE: TS BOND ANGLE DIHED IMPRP ELECT VDW BOUNDARY MISC KINETIC TOTAL TEMP POTENTIAL TOTAL3 TEMPAVG PRESSURE GPRESSURE VOLUME PRESSAVG GPRESSAVG
ENERGY: 30000 1628.5127 2447.0300 3240.5890 0.0000 -175875.1286 20097.4162 131.7476 0.0000 30629.0409 -117700.7921 297.7971 -148329.8330 -117659.0268 297.7971 -73.3991 44.7838 496669.4896 -73.3991 44.7838
ENERGY: 31000 1621.5292 2440.8821 3213.4888 0.0000 -175632.6885 19700.9286 176.5287 0.0000 30669.0131 -117810.3181 298.1858 -148479.3312 -117756.0699 298.7949 -121.3011 -78.2933 497156.3440 3.6477 4.1904
ENERGY: 32000 1592.2158 2426.8923 3224.0010 0.0000 -175891.6438 19959.5279 190.4200 0.0000 30871.4566 -117627.1303 300.1541 -148498.5869 -117578.2988 299.2250 19.7129 20.2896 497177.2045 -0.3809 -0.2386
ENERGY: 33000 1629.9732 2424.4144 3229.7713 0.0000 -175642.9155 19814.4053 184.8729 0.0000 30726.9774 -117632.5009 298.7493 -148359.4784 -117587.5488 299.0856 -83.6114 -15.2852 497265.2537 2.5167 2.7691
ENERGY: 34000 1569.6280 2416.3090 3240.4960 0.0000 -176293.8420 20176.2554 193.5734 0.0000 30846.4066 -117851.1737 299.9105 -148697.5803 -117812.1218 298.3926 19.2569 48.0007 497467.7517 -0.2484 -0.6407
ENERGY: 35000 1698.2995 2402.0049 3230.8359 0.0000 -175773.1358 20158.5071 209.9718 0.0000 30777.5091 -117296.0075 299.2406 -148073.5166 -117254.6935 299.5846 45.0826 56.4547 498160.7396 12.6833 12.7782
TCL: Setting parameter constraintScaling to 0.078125
TCL: Running for 5000 steps
ETITLE: TS BOND ANGLE DIHED IMPRP ELECT VDW BOUNDARY MISC KINETIC TOTAL TEMP POTENTIAL TOTAL3 TEMPAVG PRESSURE GPRESSURE VOLUME PRESSAVG GPRESSAVG
ENERGY: 35000 1698.2995 2402.0049 3230.8359 0.0000 -175773.1358 20158.5071 104.9859 0.0000 30775.4430 -117403.0596 299.2205 -148178.5025 -117364.3865 299.2205 42.5209 48.7334 498160.7396 42.5209 48.7334
ENERGY: 36000 1614.4306 2412.3093 3228.7240 0.0000 -176550.7245 20324.5366 146.3723 0.0000 30696.9097 -118127.4420 298.4570 -148824.3517 -118072.8098 297.6984 34.7025 69.0980 496310.7687 -12.5262 -13.2204
ENERGY: 37000 1649.0264 2422.0726 3218.0720 0.0000 -175979.7822 20050.6901 146.5561 0.0000 30995.7786 -117497.5864 301.3628 -148493.3650 -117445.5030 299.2381 -56.2480 -112.2786 497893.9046 3.6944 4.4832
ENERGY: 38000 1659.0810 2354.8327 3218.8862 0.0000 -175366.7001 19900.2876 145.8951 0.0000 30759.0449 -117328.6727 299.0611 -148087.7176 -117286.1554 299.5066 -31.0777 -17.1798 497261.4379 -5.1020 -5.0545
ENERGY: 39000 1662.4262 2363.7742 3209.5564 0.0000 -175912.1531 20116.7722 164.3872 0.0000 30813.0227 -117582.2142 299.5859 -148395.2370 -117543.4434 299.8045 -57.9060 27.2860 496790.5580 -2.4944 -2.7237
ENERGY: 40000 1608.2382 2436.0713 3207.7515 0.0000 -175732.3353 20079.7446 168.5130 0.0000 30838.0714 -117393.9453 299.8295 -148232.0167 -117343.0085 299.4698 70.5759 76.1688 498533.7872 10.8483 11.2550
TCL: Setting parameter constraintScaling to 0.0390625
TCL: Running for 5000 steps
ETITLE: TS BOND ANGLE DIHED IMPRP ELECT VDW BOUNDARY MISC KINETIC TOTAL TEMP POTENTIAL TOTAL3 TEMPAVG PRESSURE GPRESSURE VOLUME PRESSAVG GPRESSAVG
ENERGY: 40000 1608.2382 2436.0713 3207.7515 0.0000 -175732.3353 20079.7446 84.2565 0.0000 30836.0190 -117480.2541 299.8095 -148316.2732 -117435.5579 299.8095 72.8533 77.9412 498533.7872 72.8533 77.9412
ENERGY: 41000 1611.5216 2383.0148 3193.4859 0.0000 -175420.4475 19820.8473 100.8355 0.0000 30804.7974 -117505.9450 299.5059 -148310.7424 -117456.8714 299.7345 68.6737 100.9127 497508.2719 -2.4251 -2.2523
ENERGY: 42000 1640.5777 2441.8161 3231.9618 0.0000 -175638.3760 20042.4569 118.4891 0.0000 30805.8392 -117357.2352 299.5161 -148163.0744 -117315.8955 299.5272 72.3021 26.4231 498068.0956 8.4459 8.1763
ENERGY: 43000 1653.9381 2394.8830 3223.5152 0.0000 -175316.4806 19858.1747 108.9586 0.0000 30964.8032 -117112.2077 301.0616 -148077.0109 -117068.9261 301.5191 -27.6320 16.9046 497956.1122 -1.2817 -1.3686
ENERGY: 44000 1620.1583 2374.9907 3209.9181 0.0000 -175449.3840 19878.1833 120.4811 0.0000 30827.6310 -117418.0215 299.7280 -148245.6525 -117367.0444 300.9038 -1.9797 -9.3223 496814.5617 1.6753 1.7610
ENERGY: 45000 1662.1429 2392.3056 3177.9656 0.0000 -175692.9931 19923.8626 116.0314 0.0000 30927.6024 -117493.0826 300.6999 -148420.6850 -117442.6172 299.7103 13.9608 53.3804 496979.7749 -2.4625 -3.0097
TCL: Setting parameter constraintScaling to 0.01953125
TCL: Running for 5000 steps
ETITLE: TS BOND ANGLE DIHED IMPRP ELECT VDW BOUNDARY MISC KINETIC TOTAL TEMP POTENTIAL TOTAL3 TEMPAVG PRESSURE GPRESSURE VOLUME PRESSAVG GPRESSAVG
ENERGY: 45000 1662.1429 2392.3056 3177.9656 0.0000 -175692.9931 19923.8626 58.0157 0.0000 30925.6079 -117553.0929 300.6806 -148478.7007 -117507.9561 300.6806 0.1250 35.5954 496979.7749 0.1250 35.5954
ENERGY: 46000 1654.1254 2399.4223 3194.6313 0.0000 -175897.5377 20071.3525 76.3295 0.0000 30969.9484 -117531.7283 301.1117 -148501.6767 -117488.9412 300.5567 -42.0519 -58.3001 497220.3677 -7.6661 -7.1244
ENERGY: 47000 1633.5008 2351.7368 3233.7457 0.0000 -175595.2218 20027.1137 75.6962 0.0000 30948.8107 -117324.6178 300.9061 -148273.4285 -117277.2629 299.8466 145.2952 49.1726 497140.8014 4.1249 3.7595
ENERGY: 48000 1644.9746 2399.7281 3177.4491 0.0000 -175930.1253 20107.6516 77.9538 0.0000 30722.2188 -117800.1495 298.7031 -148522.3683 -117757.2176 300.2053 20.1249 63.5777 495394.4658 -23.6080 -23.5675
ENERGY: 49000 1654.6921 2397.7899 3247.8124 0.0000 -176288.2642 20320.7776 85.0541 0.0000 30725.2494 -117856.8887 298.7325 -148582.1381 -117803.8069 299.9530 -46.9860 57.1336 497623.4216 8.3425 8.9424
ENERGY: 50000 1594.1481 2456.9118 3177.4450 0.0000 -176362.8051 20125.7587 91.3253 0.0000 30836.2426 -118080.9736 299.8117 -148917.2162 -118047.0270 297.4532 -27.3628 -33.0135 496681.6384 14.3193 14.3019
TCL: Setting parameter constraintScaling to 0
TCL: Running for 5000 steps
ETITLE: TS BOND ANGLE DIHED IMPRP ELECT VDW BOUNDARY MISC KINETIC TOTAL TEMP POTENTIAL TOTAL3 TEMPAVG PRESSURE GPRESSURE VOLUME PRESSAVG GPRESSAVG
ENERGY: 50000 1594.1481 2456.9118 3177.4450 0.0000 -176362.8051 20125.7587 0.0000 0.0000 30834.2347 -118174.3068 299.7922 -149008.5415 -118135.6636 299.7922 -53.0466 -48.6845 496681.6384 -53.0466 -48.6845
ENERGY: 51000 1599.0411 2412.3592 3193.5182 0.0000 -176204.1326 20018.2799 0.0000 0.0000 30850.3812 -118130.5529 299.9491 -148980.9342 -118087.5033 299.6563 -29.3265 33.1659 495840.8257 -11.2945 -11.5610
ENERGY: 52000 1608.2129 2431.5937 3203.7234 0.0000 -175663.7836 19915.9869 0.0000 0.0000 30735.8726 -117768.3940 298.8358 -148504.2666 -117717.0028 299.9989 -87.1994 -33.6993 496389.6288 14.8104 14.1975
ENERGY: 53000 1641.1866 2366.1085 3202.6350 0.0000 -175620.8731 19987.7594 0.0000 0.0000 30791.0421 -117632.1416 299.3722 -148423.1837 -117592.2763 298.9579 79.7868 69.7925 497156.6583 7.0095 7.3963
ENERGY: 54000 1699.6981 2367.3900 3178.6009 0.0000 -175670.2127 19842.3955 0.0000 0.0000 30875.7381 -117706.3902 300.1957 -148582.1283 -117653.0134 299.7080 18.3374 -19.7878 495600.9456 -5.3320 -5.2293
ENERGY: 55000 1635.0848 2438.4434 3197.2549 0.0000 -175615.3592 19911.2591 0.0000 0.0000 30879.1264 -117554.1906 300.2286 -148433.3170 -117509.2999 299.7496 -257.0878 -122.1624 496924.0685 9.5444 9.3879
