Info: SIMULATION PARAMETERS:
Info: TIMESTEP               1
Info: NUMBER OF STEPS        0
Info: STEPS PER CYCLE        10
Info: PERIODIC CELL BASIS 1  72.449 0 0
Info: PERIODIC CELL BASIS 2  0 93.247 0
Info: PERIODIC CELL BASIS 3  0 0 79.185
Info: PERIODIC CELL CENTER   -0.248 -0.156 -0.047
Info: WRAPPING WATERS AROUND PERIODIC BOUNDARIES ON OUTPUT.
Info: WRAPPING ALL CLUSTERS AROUND PERIODIC BOUNDARIES ON OUTPUT.
Info: FIRST LDB TIMESTEP     50
Info: LAST LDB TIMESTEP     -1
Info: HOM BACKGROUND SCALING 1
Info: PME BACKGROUND SCALING 1
Info: MIN ATOMS PER PATCH    40
Info: VELOCITY FILE          ../replicas/rep9/equilibration/eq1.vel
Info: CENTER OF MASS MOVING INITIALLY? NO
Info: DIELECTRIC             1
Info: EXCLUDE                SCALED ONE-FOUR
Info: 1-4 ELECTROSTATICS SCALED BY 0.833333
Info: MODIFIED 1-4 VDW PARAMETERS WILL BE USED
Info: DCD FILENAME           ../replicas/rep9/equilibration/eq2.dcd
Info: DCD FREQUENCY          5000
Info: DCD FIRST STEP         5000
Info: DCD FILE WILL CONTAIN UNIT CELL DATA
Info: XST FILENAME           ../replicas/rep9/equilibration/eq2.xst
Info: XST FREQUENCY          5000
Info: NO VELOCITY DCD OUTPUT
Info: NO FORCE DCD OUTPUT
Info: OUTPUT FILENAME        ../replicas/rep9/equilibration/eq2
Info: RESTART FILENAME       ../replicas/rep9/equilibration/eq2.restart
Info: RESTART FREQUENCY      5000
Info: BINARY RESTART FILES WILL BE USED
Info: SWITCHING ACTIVE
Info: SWITCHING ON           10
Info: SWITCHING OFF          12
Info: PAIRLIST DISTANCE      13.5
Info: PAIRLIST SHRINK RATE   0.01
Info: PAIRLIST GROW RATE     0.01
Info: PAIRLIST TRIGGER       0.3
Info: PAIRLISTS PER CYCLE    2
Info: PAIRLISTS ENABLED
Info: MARGIN                 0.48
Info: HYDROGEN GROUP CUTOFF  2.5
Info: PATCH DIMENSION        16.48
Info: ENERGY OUTPUT STEPS    500
Info: CROSSTERM ENERGY INCLUDED IN DIHEDRAL
Info: TIMING OUTPUT STEPS    5000
Info: PRESSURE OUTPUT STEPS  500
Info: HARMONIC CONSTRAINTS ACTIVE
Info: HARMONIC CONS EXP      2
Info: HARMONIC CONS SCALING  10
Info: LANGEVIN DYNAMICS ACTIVE
Info: LANGEVIN TEMPERATURE   300
Info: LANGEVIN USING BBK INTEGRATOR
Info: LANGEVIN DAMPING COEFFICIENT IS 5 INVERSE PS
Info: LANGEVIN DYNAMICS NOT APPLIED TO HYDROGENS
Info: BERENDSEN PRESSURE COUPLING ACTIVE
Info:     TARGET PRESSURE IS 1 BAR
Info:     COMPRESSIBILITY ESTIMATE IS 4.57e-05 BAR^(-1)
Info:     RELAXATION TIME IS 100 FS
Info:     APPLIED EVERY 2 STEPS
Info:     PRESSURE CONTROL IS GROUP-BASED
Info:       CELL FLUCTUATION IS ISOTROPIC
Info: PARTICLE MESH EWALD (PME) ACTIVE
Info: PME TOLERANCE               1e-06
Info: PME EWALD COEFFICIENT       0.257952
Info: PME INTERPOLATION ORDER     4
Info: PME GRID DIMENSIONS         80 96 80
Info: PME MAXIMUM GRID SPACING    1
Info: FULL ELECTROSTATIC EVALUATION FREQUENCY      2
Info: USING VERLET I (r-RESPA) MTS SCHEME.
Info: C1 SPLITTING OF LONG RANGE ELECTROSTATICS
Info: PLACING ATOMS IN PATCHES BY HYDROGEN GROUPS
Info: RIGID BONDS TO HYDROGEN : WATER
Info:         ERROR TOLERANCE : 1e-05
Info:          MAX ITERATIONS : 100
Info: RIGID WATER USING SETTLE ALGORITHM
Info: RANDOM NUMBER SEED     1503693791
Info: USE HYDROGEN BONDS?    NO
Info: Using AMBER format force field!
Info: AMBER PARM FILE        ../build/complex.top
Info: COORDINATE PDB         ../replicas/rep9/equilibration/eq1.coor
Info: Exclusions in PARM file will be ignored!
Info: SCNB (VDW SCALING)     2
Info: USING ARITHMETIC MEAN TO COMBINE L-J SIGMA PARAMETERS
Info: SUMMARY OF PARAMETERS:
Info: 71 BONDS
Info: 145 ANGLES
Info: 76 DIHEDRAL
Info: 0 IMPROPER
Info: 0 CROSSTERM
Info: 0 VDW
Info: 190 VDW_PAIRS
Info: 0 NBTHOLE_PAIRS
Info: STRUCTURE SUMMARY:
Info: 49394 ATOMS
Info: 49448 BONDS
Info: 8698 ANGLES
Info: 18780 DIHEDRALS
Info: 0 IMPROPERS
Info: 0 CROSSTERMS
Info: 0 EXCLUSIONS
Info: 2336 CONSTRAINTS
Info: 44667 RIGID BONDS
Info: 103515 DEGREES OF FREEDOM
Info: 17225 HYDROGEN GROUPS
Info: 4 ATOMS IN LARGEST HYDROGEN GROUP
Info: 17225 MIGRATION GROUPS
Info: 4 ATOMS IN LARGEST MIGRATION GROUP
Info: TOTAL MASS = 301478 amu
Info: TOTAL CHARGE = 1.00115e-05 e
Info: MASS DENSITY = 0.935846 g/cm^3
Info: ATOM DENSITY = 0.0923345 atoms/A^3
Info: ADDED 70656 IMPLICIT EXCLUSIONS
Info: NONBONDED TABLE R-SQUARED SPACING: 0.0625
Info: NONBONDED TABLE SIZE: 769 POINTS
Info: REMOVING COM VELOCITY -0.0303264 0.0012042 0.0180344
TCL: Running for 5000 steps
ETITLE: TS BOND ANGLE DIHED IMPRP ELECT VDW BOUNDARY MISC KINETIC TOTAL TEMP POTENTIAL TOTAL3 TEMPAVG PRESSURE GPRESSURE VOLUME PRESSAVG GPRESSAVG
ENERGY: 0 395.6027 1218.2203 2933.4468 0.0000 -212618.5348 29457.1569 0.0000 0.0000 10107.5126 -168506.5954 98.2724 -178614.1080 -168496.8736 98.2724 -2433.7996 -2535.8980 534946.2959 -2433.7996 -2535.8980
ENERGY: 1000 1255.8238 2005.3549 3099.3959 0.0000 -194079.6409 26666.6793 778.8212 0.0000 24173.7082 -136099.8575 235.0338 -160273.5658 -136068.8889 218.7726 -131.9134 -26.5383 522913.2978 -10.0581 -9.9478
ENERGY: 2000 1457.7435 2181.6871 3138.4605 0.0000 -184795.1780 23454.0709 811.9775 0.0000 27743.6585 -126007.5799 269.7434 -153751.2384 -125974.2823 262.8153 -62.2508 -8.0671 514779.8710 -26.0267 -25.7964
ENERGY: 3000 1509.2939 2202.2243 3156.0154 0.0000 -179573.5383 21529.0942 775.1479 0.0000 29455.5874 -120946.1752 286.3880 -150401.7626 -120899.9833 282.9152 -34.9391 18.2399 508143.4985 -29.5869 -29.3547
ENERGY: 4000 1549.2785 2183.5440 3156.2074 0.0000 -177040.7673 20757.2622 776.1147 0.0000 30315.5665 -118302.7941 294.7493 -148618.3605 -118260.6407 292.9333 -39.0404 -21.7395 506276.3722 -10.5200 -10.6900
ENERGY: 5000 1537.1357 2266.2753 3151.0950 0.0000 -176385.2897 20484.1064 819.5828 0.0000 30655.7302 -117471.3641 298.0566 -148127.0943 -117419.7306 297.1134 -53.2083 32.3071 504405.1345 -0.1935 -0.4609
TCL: Setting parameter constraintScaling to 5.0
TCL: Running for 5000 steps
ETITLE: TS BOND ANGLE DIHED IMPRP ELECT VDW BOUNDARY MISC KINETIC TOTAL TEMP POTENTIAL TOTAL3 TEMPAVG PRESSURE GPRESSURE VOLUME PRESSAVG GPRESSAVG
ENERGY: 5000 1537.1357 2266.2753 3151.0950 0.0000 -176385.2897 20484.1064 409.7914 0.0000 30653.6979 -117883.1879 298.0369 -148536.8858 -117836.3244 298.0369 -74.0786 14.3480 504405.1345 -74.0786 14.3480
ENERGY: 6000 1618.5775 2302.4469 3194.6492 0.0000 -175823.3065 20299.1023 666.2497 0.0000 30762.9379 -116979.3430 299.0990 -147742.2809 -116934.0384 298.8670 -6.3968 13.6480 503799.6814 -5.7319 -5.9387
ENERGY: 7000 1596.0023 2330.7026 3171.8365 0.0000 -175276.2194 19990.2410 611.5882 0.0000 30729.9240 -116845.9248 298.7780 -147575.8488 -116804.8390 298.9469 -61.8753 18.4307 503622.5991 4.2071 4.1194
ENERGY: 8000 1578.3346 2338.0490 3177.9894 0.0000 -175560.4008 20166.0534 663.8928 0.0000 30695.3123 -116940.7694 298.4415 -147636.0817 -116899.4158 299.6577 -128.6216 6.6481 502170.7792 -7.5996 -7.3204
ENERGY: 9000 1572.2463 2301.7464 3186.9921 0.0000 -175465.6291 20209.5100 654.3755 0.0000 30756.7995 -116783.9594 299.0393 -147540.7589 -116727.2584 299.2283 17.0260 11.3759 501462.4417 1.4174 0.8662
ENERGY: 10000 1685.8140 2314.8941 3156.3149 0.0000 -175134.4377 19748.4677 627.4209 0.0000 30904.6061 -116696.9200 300.4764 -147601.5261 -116651.4682 299.3875 -45.9322 -26.2353 500793.6726 -2.9352 -2.4210
TCL: Setting parameter constraintScaling to 2.5
TCL: Running for 5000 steps
ETITLE: TS BOND ANGLE DIHED IMPRP ELECT VDW BOUNDARY MISC KINETIC TOTAL TEMP POTENTIAL TOTAL3 TEMPAVG PRESSURE GPRESSURE VOLUME PRESSAVG GPRESSAVG
ENERGY: 10000 1685.8140 2314.8941 3156.3149 0.0000 -175134.4377 19748.4677 313.7105 0.0000 30902.5770 -117012.6595 300.4566 -147915.2366 -116969.2390 300.4566 -131.6264 -102.9753 500793.6726 -131.6264 -102.9753
ENERGY: 11000 1675.4517 2371.9653 3175.3227 0.0000 -175650.0681 20317.4083 506.0484 0.0000 30957.4074 -116646.4644 300.9897 -147603.8718 -116600.8878 300.8204 -17.0959 1.8373 501116.5263 4.8174 5.1378
ENERGY: 12000 1631.6792 2345.4293 3189.4089 0.0000 -175257.0387 20018.6994 525.8268 0.0000 31051.1077 -116494.8875 301.9008 -147545.9952 -116450.5191 300.7516 -71.0232 -66.0982 501177.2377 -4.5634 -4.1661
ENERGY: 13000 1625.3176 2307.1828 3166.1739 0.0000 -175492.3861 20095.2437 506.1198 0.0000 30897.3864 -116894.9619 300.4062 -147792.3484 -116839.0211 300.8053 1.3505 -16.7886 500293.7300 -1.8553 -1.6451
ENERGY: 14000 1680.0779 2319.8392 3170.7406 0.0000 -175562.3219 19975.0849 511.1317 0.0000 30730.9575 -117174.4901 298.7880 -147905.4476 -117125.5327 299.4618 -190.8849 -70.5267 499196.4119 -5.7609 -6.0562
ENERGY: 15000 1616.0598 2372.2003 3175.2298 0.0000 -175621.9253 19947.7823 502.4235 0.0000 30809.9426 -117198.2870 299.5560 -148008.2296 -117143.7932 299.4728 -33.1460 -45.0661 498609.5078 -4.3611 -4.4809
TCL: Setting parameter constraintScaling to 1.25
TCL: Running for 5000 steps
ETITLE: TS BOND ANGLE DIHED IMPRP ELECT VDW BOUNDARY MISC KINETIC TOTAL TEMP POTENTIAL TOTAL3 TEMPAVG PRESSURE GPRESSURE VOLUME PRESSAVG GPRESSAVG
ENERGY: 15000 1616.0598 2372.2003 3175.2298 0.0000 -175621.9253 19947.7823 251.2118 0.0000 30807.8865 -117451.5549 299.5360 -148259.4414 -117407.5425 299.5360 -134.1005 -150.1509 498609.5078 -134.1005 -150.1509
ENERGY: 16000 1585.5350 2395.6567 3195.7510 0.0000 -175452.5297 19933.6837 403.0932 0.0000 30872.4717 -117066.3385 300.1639 -147938.8101 -117033.2540 300.1199 10.9873 -13.8295 499111.8002 2.9043 2.9617
ENERGY: 17000 1647.4029 2364.9134 3173.0590 0.0000 -176092.7890 20319.4133 403.3722 0.0000 30844.2588 -117340.3693 299.8896 -148184.6281 -117295.3618 299.1659 67.7227 63.6696 498703.2212 -4.9764 -5.1930
ENERGY: 18000 1608.7568 2355.0986 3206.2308 0.0000 -175164.4782 19952.8211 395.2354 0.0000 30778.1971 -116868.1385 299.2473 -147646.3356 -116826.6275 300.8564 -5.4249 12.5587 498430.2128 1.1600 0.9650
ENERGY: 19000 1662.3324 2336.8376 3204.7446 0.0000 -175727.3172 20192.4983 380.2462 0.0000 30912.5628 -117038.0952 300.5537 -147950.6580 -116992.5058 300.6200 -76.8688 0.4868 498557.4617 9.7078 9.7139
ENERGY: 20000 1640.1941 2363.4251 3185.9524 0.0000 -175534.9523 19995.5122 400.4279 0.0000 30811.5790 -117137.8616 299.5719 -147949.4406 -117091.6452 299.3810 17.7544 -14.6074 498670.1557 -2.9127 -2.4436
TCL: Setting parameter constraintScaling to 0.625
TCL: Running for 5000 steps
ETITLE: TS BOND ANGLE DIHED IMPRP ELECT VDW BOUNDARY MISC KINETIC TOTAL TEMP POTENTIAL TOTAL3 TEMPAVG PRESSURE GPRESSURE VOLUME PRESSAVG GPRESSAVG
ENERGY: 20000 1640.1941 2363.4251 3185.9524 0.0000 -175534.9523 19995.5122 200.2140 0.0000 30809.5418 -117340.1128 299.5521 -148149.6546 -117298.4435 299.5521 8.4839 -21.3733 498670.1557 8.4839 -21.3733
ENERGY: 21000 1655.4124 2351.8478 3190.6625 0.0000 -175429.1421 19928.3042 305.3807 0.0000 30979.3628 -117018.1717 301.2032 -147997.5345 -116979.7519 300.2417 -57.1427 5.1319 498194.6314 3.5895 3.5932
ENERGY: 22000 1665.9385 2366.9262 3210.1530 0.0000 -176004.1718 20062.9902 324.7516 0.0000 30624.5699 -117748.8425 297.7537 -148373.4124 -117706.2945 298.6762 -55.0575 -27.4655 497550.2608 -1.7557 -2.4120
ENERGY: 23000 1632.5495 2395.7776 3207.6252 0.0000 -175632.7621 19799.5670 311.8525 0.0000 30793.1672 -117492.2231 299.3929 -148285.3902 -117452.8519 299.6311 45.0736 27.0346 497561.7169 -1.7013 -1.6725
ENERGY: 24000 1584.0543 2395.3048 3193.4605 0.0000 -175849.3761 20009.8653 302.6750 0.0000 30813.2174 -117550.7989 299.5878 -148364.0163 -117503.8586 298.8447 -24.1764 67.9133 497776.6717 0.4332 0.7042
ENERGY: 25000 1661.1058 2428.6212 3216.1278 0.0000 -176060.7450 20309.3763 298.3146 0.0000 30795.0558 -117352.1435 299.4112 -148147.1993 -117306.8074 300.2508 -127.5242 22.4898 498516.8301 3.8705 3.5525
TCL: Setting parameter constraintScaling to 0.3125
TCL: Running for 5000 steps
ETITLE: TS BOND ANGLE DIHED IMPRP ELECT VDW BOUNDARY MISC KINETIC TOTAL TEMP POTENTIAL TOTAL3 TEMPAVG PRESSURE GPRESSURE VOLUME PRESSAVG GPRESSAVG
ENERGY: 25000 1661.1058 2428.6212 3216.1278 0.0000 -176060.7450 20309.3763 149.1573 0.0000 30793.0258 -117503.3308 299.3915 -148296.3566 -117463.2022 299.3915 -135.1611 11.3228 498516.8301 -135.1611 11.3228
ENERGY: 26000 1621.0135 2396.9898 3218.6440 0.0000 -175874.5155 19953.9987 248.0031 0.0000 30962.0629 -117473.8035 301.0350 -148435.8664 -117421.4835 299.9001 7.2759 22.9254 498143.6238 5.9932 6.2950
ENERGY: 27000 1667.0808 2445.5800 3252.0205 0.0000 -176043.2533 20205.4454 263.1444 0.0000 30588.8440 -117621.1381 297.4063 -148209.9821 -117570.4157 299.3236 35.9040 101.1768 496805.4266 -0.5972 -0.2597
ENERGY: 28000 1609.1113 2354.1660 3213.5645 0.0000 -175810.5873 20122.3596 257.9553 0.0000 30633.4828 -117619.9479 297.8403 -148253.4307 -117586.0369 299.6941 -35.1284 -6.9980 498042.7916 6.7732 6.6302
ENERGY: 29000 1617.4888 2404.7239 3215.6281 0.0000 -175863.5391 20164.3797 261.1268 0.0000 30694.5628 -117505.6290 298.4342 -148200.1918 -117455.8527 299.2346 -101.8408 -11.2920 498378.9921 1.6634 1.5370
ENERGY: 30000 1611.5896 2426.9661 3190.2205 0.0000 -175824.6457 20171.9523 256.3154 0.0000 30956.1653 -117211.4364 300.9777 -148167.6018 -117166.0471 299.0294 -78.9032 9.4087 497458.3889 6.3847 6.3857
TCL: Setting parameter constraintScaling to 0.15625
TCL: Running for 5000 steps
ETITLE: TS BOND ANGLE DIHED IMPRP ELECT VDW BOUNDARY MISC KINETIC TOTAL TEMP POTENTIAL TOTAL3 TEMPAVG PRESSURE GPRESSURE VOLUME PRESSAVG GPRESSAVG
ENERGY: 30000 1611.5896 2426.9661 3190.2205 0.0000 -175824.6457 20171.9523 128.1577 0.0000 30954.1232 -117341.6363 300.9578 -148295.7595 -117299.4246 300.9578 -106.2711 -5.3975 497458.3889 -106.2711 -5.3975
ENERGY: 31000 1637.5925 2402.4889 3238.1769 0.0000 -175961.1508 20085.8780 203.2396 0.0000 30803.0865 -117590.6884 299.4893 -148393.7748 -117543.6182 299.5329 -115.4057 -62.7822 498543.6977 4.2059 4.1439
ENERGY: 32000 1657.2402 2465.0609 3202.6923 0.0000 -175813.4545 20188.9845 185.8028 0.0000 30678.7837 -117434.8901 298.2808 -148113.6738 -117395.3620 299.5427 -158.4384 -42.1377 499443.2579 -0.1859 -0.1258
ENERGY: 33000 1677.0883 2423.8590 3217.3379 0.0000 -176212.3799 20229.4234 195.3457 0.0000 30624.2073 -117845.1184 297.7501 -148469.3257 -117796.8796 299.8091 12.2403 19.4340 498350.7639 -3.5766 -3.6065
ENERGY: 34000 1629.7372 2380.7669 3218.3923 0.0000 -176069.7733 20124.4712 198.9214 0.0000 30750.6304 -117766.8540 298.9793 -148517.4844 -117722.8018 298.6182 -145.0629 -47.1706 497024.7112 -4.9654 -4.3685
ENERGY: 35000 1619.3025 2356.9365 3241.0704 0.0000 -176000.8691 20169.4599 205.3010 0.0000 30815.7941 -117593.0047 299.6129 -148408.7988 -117548.9217 299.6066 -187.1533 -134.3037 498343.7488 5.3152 5.7558
TCL: Setting parameter constraintScaling to 0.078125
TCL: Running for 5000 steps
ETITLE: TS BOND ANGLE DIHED IMPRP ELECT VDW BOUNDARY MISC KINETIC TOTAL TEMP POTENTIAL TOTAL3 TEMPAVG PRESSURE GPRESSURE VOLUME PRESSAVG GPRESSAVG
ENERGY: 35000 1619.3025 2356.9365 3241.0704 0.0000 -176000.8691 20169.4599 102.6505 0.0000 30813.7299 -117697.7194 299.5928 -148511.4493 -117656.6546 299.5928 -202.2409 -139.9843 498343.7488 -202.2409 -139.9843
ENERGY: 36000 1635.6570 2384.8494 3238.1332 0.0000 -175553.3614 20122.7560 143.2966 0.0000 30772.3292 -117256.3400 299.1903 -148028.6693 -117199.3836 300.0650 -55.1536 -1.3800 498423.2906 6.3107 6.2318
ENERGY: 37000 1657.5142 2376.0947 3223.4472 0.0000 -176122.6892 20129.0775 146.9231 0.0000 30847.6819 -117741.9506 299.9229 -148589.6325 -117710.5414 299.2227 -43.7824 36.4763 497211.8055 -2.5651 -2.9140
ENERGY: 38000 1601.4399 2382.9198 3197.1870 0.0000 -175964.5359 20073.9274 158.0894 0.0000 30732.4220 -117818.5504 298.8023 -148550.9724 -117759.0732 298.9252 -80.9633 -28.4408 498038.8896 2.4852 2.9205
ENERGY: 39000 1700.2674 2459.3703 3214.6574 0.0000 -175881.0655 20120.5105 160.0162 0.0000 30775.1939 -117451.0498 299.2181 -148226.2437 -117410.9501 299.8831 -14.8250 56.6420 498340.7065 -1.4428 -1.0134
ENERGY: 40000 1645.6356 2423.3369 3161.4711 0.0000 -175713.7801 20053.2939 164.8639 0.0000 30888.8590 -117376.3196 300.3233 -148265.1786 -117328.1028 300.5212 -31.8828 25.9941 497080.5258 -7.3958 -6.9312
TCL: Setting parameter constraintScaling to 0.0390625
TCL: Running for 5000 steps
ETITLE: TS BOND ANGLE DIHED IMPRP ELECT VDW BOUNDARY MISC KINETIC TOTAL TEMP POTENTIAL TOTAL3 TEMPAVG PRESSURE GPRESSURE VOLUME PRESSAVG GPRESSAVG
ENERGY: 40000 1645.6356 2423.3369 3161.4711 0.0000 -175713.7801 20053.2939 82.4320 0.0000 30886.8204 -117460.7902 300.3034 -148347.6106 -117416.5633 300.3034 -42.0924 22.2202 497080.5258 -42.0924 22.2202
ENERGY: 41000 1668.3460 2370.2571 3181.8617 0.0000 -175621.3505 20032.9088 96.7407 0.0000 30605.8352 -117665.4009 297.5715 -148271.2361 -117627.3184 299.7667 -47.4737 -3.7583 497304.4531 5.7590 5.8444
ENERGY: 42000 1688.4603 2360.5879 3207.8664 0.0000 -175881.9601 19928.5681 117.4608 0.0000 30905.7937 -117673.2230 300.4879 -148579.0167 -117628.1308 299.6054 -68.3519 -67.5739 495954.1484 -14.3710 -13.8913
ENERGY: 43000 1642.7807 2385.9720 3206.8021 0.0000 -175849.4112 19964.9959 117.9193 0.0000 30751.7047 -117779.2363 298.9897 -148530.9411 -117732.0269 299.4207 14.6520 -44.4478 497415.9429 2.2669 1.9631
ENERGY: 44000 1584.2004 2411.2261 3231.1353 0.0000 -176348.9007 20306.1732 120.7968 0.0000 30492.0794 -118203.2895 296.4655 -148695.3688 -118165.6549 299.1440 114.3237 102.5350 497617.6179 1.4498 2.0254
ENERGY: 45000 1648.1710 2434.7257 3191.6798 0.0000 -176128.6635 20018.2114 130.9016 0.0000 30963.2018 -117741.7723 301.0461 -148704.9741 -117692.5470 298.8329 4.4461 -60.3473 495879.6165 -5.6296 -5.5991
TCL: Setting parameter constraintScaling to 0.01953125
TCL: Running for 5000 steps
ETITLE: TS BOND ANGLE DIHED IMPRP ELECT VDW BOUNDARY MISC KINETIC TOTAL TEMP POTENTIAL TOTAL3 TEMPAVG PRESSURE GPRESSURE VOLUME PRESSAVG GPRESSAVG
ENERGY: 45000 1648.1710 2434.7257 3191.6798 0.0000 -176128.6635 20018.2114 65.4508 0.0000 30961.1571 -117809.2678 301.0262 -148770.4249 -117765.4600 301.0262 -22.0162 -81.3396 495879.6165 -22.0162 -81.3396
ENERGY: 46000 1613.9126 2437.3210 3195.4608 0.0000 -176171.0309 20167.9105 79.3951 0.0000 30728.2664 -117948.7644 298.7619 -148677.0308 -117901.7428 299.9396 -36.3375 -11.7830 497927.7435 12.5830 12.0889
ENERGY: 47000 1624.7435 2431.7458 3235.9134 0.0000 -176161.2979 20101.6786 77.7507 0.0000 30844.7797 -117844.6862 299.8947 -148689.4659 -117802.1148 299.8145 141.8832 65.7793 496710.0981 -2.3948 -3.0036
ENERGY: 48000 1642.5828 2388.4595 3192.0225 0.0000 -176150.9085 20279.3309 79.4867 0.0000 30568.5080 -118000.5182 297.2086 -148569.0262 -117962.2218 298.8207 31.1589 26.4159 497130.4353 7.8937 8.2364
ENERGY: 49000 1667.4434 2445.6919 3204.8125 0.0000 -176184.5153 20171.2212 86.5619 0.0000 30885.3868 -117723.3976 300.2895 -148608.7844 -117683.5624 298.9718 -63.9488 -6.9659 496715.2959 0.1462 -0.2778
ENERGY: 50000 1658.3637 2384.4587 3223.2572 0.0000 -175997.4047 20130.7458 84.7573 0.0000 30792.5940 -117723.2281 299.3873 -148515.8221 -117671.1815 299.1292 -86.0088 19.5912 496113.1885 -3.5481 -3.0560
TCL: Setting parameter constraintScaling to 0
TCL: Running for 5000 steps
ETITLE: TS BOND ANGLE DIHED IMPRP ELECT VDW BOUNDARY MISC KINETIC TOTAL TEMP POTENTIAL TOTAL3 TEMPAVG PRESSURE GPRESSURE VOLUME PRESSAVG GPRESSAVG
ENERGY: 50000 1658.3637 2384.4587 3223.2572 0.0000 -175997.4047 20130.7458 0.0000 0.0000 30790.5511 -117810.0283 299.3674 -148600.5793 -117768.9697 299.3674 -101.2690 5.8835 496113.1885 -101.2690 5.8835
ENERGY: 51000 1599.2175 2475.7685 3236.6968 0.0000 -175313.4928 19839.3783 0.0000 0.0000 30787.9000 -117374.5316 299.3417 -148162.4317 -117328.0101 300.6258 10.9828 68.0976 496951.4555 7.5166 7.7925
ENERGY: 52000 1607.8811 2433.5815 3195.8741 0.0000 -175983.4094 19968.2878 0.0000 0.0000 30954.4852 -117823.2999 300.9613 -148777.7850 -117780.1297 299.9020 -43.1288 17.2702 495658.4265 0.2224 -0.0491
ENERGY: 53000 1622.0093 2437.4361 3202.7997 0.0000 -175806.5230 20009.6439 0.0000 0.0000 30690.7902 -117843.8438 298.3975 -148534.6339 -117800.4019 299.7909 -181.3328 -47.1305 497193.5883 11.9250 11.7959
ENERGY: 54000 1609.4286 2495.7549 3217.8800 0.0000 -175916.5878 19925.9495 0.0000 0.0000 30981.4262 -117686.1487 301.2233 -148667.5749 -117649.6488 300.4133 64.5256 49.2136 494520.8642 -19.4312 -19.7653
ENERGY: 55000 1650.9076 2438.1067 3210.6644 0.0000 -175715.0538 19929.0979 0.0000 0.0000 31103.3094 -117382.9678 302.4083 -148486.2772 -117341.1586 300.3609 63.4908 48.3959 496267.6694 9.5830 9.1545
