Info: SIMULATION PARAMETERS:
Info: TIMESTEP               2
Info: NUMBER OF STEPS        0
Info: STEPS PER CYCLE        10
Info: PERIODIC CELL BASIS 1  72.449 0 0
Info: PERIODIC CELL BASIS 2  0 93.247 0
Info: PERIODIC CELL BASIS 3  0 0 79.185
Info: PERIODIC CELL CENTER   -0.248 -0.156 -0.047
Info: WRAPPING WATERS AROUND PERIODIC BOUNDARIES ON OUTPUT.
Info: WRAPPING ALL CLUSTERS AROUND PERIODIC BOUNDARIES ON OUTPUT.
Info: FIRST LDB TIMESTEP     50
Info: LAST LDB TIMESTEP     -1
Info: HOM BACKGROUND SCALING 1
Info: PME BACKGROUND SCALING 1
Info: MIN ATOMS PER PATCH    40
Info: INITIAL TEMPERATURE    0
Info: CENTER OF MASS MOVING INITIALLY? NO
Info: DIELECTRIC             1
Info: EXCLUDE                SCALED ONE-FOUR
Info: 1-4 ELECTROSTATICS SCALED BY 0.833333
Info: MODIFIED 1-4 VDW PARAMETERS WILL BE USED
Info: NO DCD TRAJECTORY OUTPUT
Info: NO EXTENDED SYSTEM TRAJECTORY OUTPUT
Info: NO VELOCITY DCD OUTPUT
Info: NO FORCE DCD OUTPUT
Info: OUTPUT FILENAME        ../replicas/rep7/equilibration/eq0
Info: NO RESTART FILE
Info: SWITCHING ACTIVE
Info: SWITCHING ON           10
Info: SWITCHING OFF          12
Info: PAIRLIST DISTANCE      13.5
Info: PAIRLIST SHRINK RATE   0.01
Info: PAIRLIST GROW RATE     0.01
Info: PAIRLIST TRIGGER       0.3
Info: PAIRLISTS PER CYCLE    2
Info: PAIRLISTS ENABLED
Info: MARGIN                 0
Info: HYDROGEN GROUP CUTOFF  2.5
Info: PATCH DIMENSION        16
Info: ENERGY OUTPUT STEPS    500
Info: CROSSTERM ENERGY INCLUDED IN DIHEDRAL
Info: TIMING OUTPUT STEPS    5000
Info: PRESSURE OUTPUT STEPS  500
Info: HARMONIC CONSTRAINTS ACTIVE
Info: HARMONIC CONS EXP      2
Info: HARMONIC CONS SCALING  10
Info: CONJUGATE GRADIENT MINIMIZATION ACTIVE
Info: LINE MINIMIZATION GOAL = 0.001
Info: BABY STEP SIZE = 0.01
Info: TINY STEP SIZE = 1e-06
Info: PARTICLE MESH EWALD (PME) ACTIVE
Info: PME TOLERANCE               1e-06
Info: PME EWALD COEFFICIENT       0.257952
Info: PME INTERPOLATION ORDER     4
Info: PME GRID DIMENSIONS         80 96 80
Info: PME MAXIMUM GRID SPACING    1
Info: FULL ELECTROSTATIC EVALUATION FREQUENCY      2
Info: USING VERLET I (r-RESPA) MTS SCHEME.
Info: C1 SPLITTING OF LONG RANGE ELECTROSTATICS
Info: PLACING ATOMS IN PATCHES BY HYDROGEN GROUPS
Info: RIGID BONDS TO HYDROGEN : ALL
Info:         ERROR TOLERANCE : 1e-05
Info:          MAX ITERATIONS : 100
Info: RIGID WATER USING SETTLE ALGORITHM
Info: RANDOM NUMBER SEED     1503261611
Info: USE HYDROGEN BONDS?    NO
Info: Using AMBER format force field!
Info: AMBER PARM FILE        ../build/complex.top
Info: COORDINATE PDB         ../build/complex.pdb
Info: Exclusions in PARM file will be ignored!
Info: SCNB (VDW SCALING)     2
Info: USING ARITHMETIC MEAN TO COMBINE L-J SIGMA PARAMETERS
Info: SUMMARY OF PARAMETERS:
Info: 71 BONDS
Info: 145 ANGLES
Info: 76 DIHEDRAL
Info: 0 IMPROPER
Info: 0 CROSSTERM
Info: 0 VDW
Info: 190 VDW_PAIRS
Info: 0 NBTHOLE_PAIRS
Info: STRUCTURE SUMMARY:
Info: 49394 ATOMS
Info: 49448 BONDS
Info: 8698 ANGLES
Info: 18780 DIHEDRALS
Info: 0 IMPROPERS
Info: 0 CROSSTERMS
Info: 0 EXCLUSIONS
Info: 2336 CONSTRAINTS
Info: 47058 RIGID BONDS
Info: 101124 DEGREES OF FREEDOM
Info: 17225 HYDROGEN GROUPS
Info: 4 ATOMS IN LARGEST HYDROGEN GROUP
Info: 17225 MIGRATION GROUPS
Info: 4 ATOMS IN LARGEST MIGRATION GROUP
Info: TOTAL MASS = 301478 amu
Info: TOTAL CHARGE = 1.00115e-05 e
Info: MASS DENSITY = 0.935846 g/cm^3
Info: ATOM DENSITY = 0.0923345 atoms/A^3
Info: ADDED 70656 IMPLICIT EXCLUSIONS
Info: NONBONDED TABLE R-SQUARED SPACING: 0.0625
Info: NONBONDED TABLE SIZE: 769 POINTS
Info: REMOVING COM VELOCITY 0 0 0
TCL: Minimizing for 100 steps
ETITLE: TS BOND ANGLE DIHED IMPRP ELECT VDW BOUNDARY MISC KINETIC TOTAL TEMP POTENTIAL TOTAL3 TEMPAVG PRESSURE GPRESSURE VOLUME PRESSAVG GPRESSAVG
ENERGY: 0 155.4176 1012.2698 2855.7272 0.0000 -154496.7911 207729.2052 0.0468 0.0000 0.0000 57255.8755 0.0000 57255.8755 57255.8755 0.0000 116350.2532 86546.1670 534946.2959 116350.2532 86546.1670
ENERGY: 20 304.7561 935.7913 2893.4663 0.0000 -158672.9413 17936.6590 143.9455 0.0000 0.0000 -136458.3231 0.0000 -136458.3231 -136458.3231 0.0000 16523.9383 -239.4563 534946.2959 16523.9383 -239.4563
ENERGY: 40 198.7446 799.5728 2896.9273 0.0000 -162811.4521 16417.9540 221.3030 0.0000 0.0000 -142276.9504 0.0000 -142276.9504 -142276.9504 0.0000 15011.2706 -2135.4694 534946.2959 15011.2706 -2135.4694
ENERGY: 60 130.5283 715.3440 2898.2166 0.0000 -167496.1555 15446.7542 315.2796 0.0000 0.0000 -147990.0329 0.0000 -147990.0329 -147990.0329 0.0000 13793.8840 -3799.3982 534946.2959 13793.8840 -3799.3982
ENERGY: 80 431.2713 765.6305 2904.3786 0.0000 -169937.5222 15121.1532 372.0121 0.0000 0.0000 -150343.0764 0.0000 -150343.0764 -150343.0764 0.0000 13270.3323 -4577.2422 534946.2959 13270.3323 -4577.2422
ENERGY: 100 119.3870 710.0603 2905.2591 0.0000 -171259.7154 14991.7865 387.3614 0.0000 0.0000 -152145.8612 0.0000 -152145.8612 -152145.8612 0.0000 13056.2647 -4908.1733 534946.2959 13056.2647 -4908.1733
TCL: Setting parameter constraintScaling to 5.0
TCL: Minimizing for 100 steps
ETITLE: TS BOND ANGLE DIHED IMPRP ELECT VDW BOUNDARY MISC KINETIC TOTAL TEMP POTENTIAL TOTAL3 TEMPAVG PRESSURE GPRESSURE VOLUME PRESSAVG GPRESSAVG
ENERGY: 100 119.3870 710.0603 2905.2591 0.0000 -171259.7154 14991.7865 193.6807 0.0000 0.0000 -152339.5418 0.0000 -152339.5418 -152339.5418 0.0000 13672.7709 -23021.8197 534946.2959 13672.7709 -23021.8197
ENERGY: 120 108.8868 687.5859 2912.9268 0.0000 -172865.8836 14798.2706 281.1920 0.0000 0.0000 -154077.0215 0.0000 -154077.0215 -154077.0215 0.0000 13218.2538 -4906.0176 534946.2959 13218.2538 -4906.0176
ENERGY: 140 309.4891 708.8796 2913.8025 0.0000 -174236.5202 14731.4893 326.6348 0.0000 0.0000 -155246.2248 0.0000 -155246.2248 -155246.2248 0.0000 12971.5420 -5303.2092 534946.2959 12971.5420 -5303.2092
ENERGY: 160 264.9094 683.0207 2923.1551 0.0000 -176273.3983 14757.2216 382.8167 0.0000 0.0000 -157262.2748 0.0000 -157262.2748 -157262.2748 0.0000 12741.2037 -5742.2827 534946.2959 12741.2037 -5742.2827
ENERGY: 180 269.1077 744.0904 2928.5662 0.0000 -178993.8417 15023.2529 473.2206 0.0000 0.0000 -159555.6040 0.0000 -159555.6040 -159555.6040 0.0000 12521.6855 -6223.3571 534946.2959 12521.6855 -6223.3571
ENERGY: 200 238.6883 694.1188 2941.3490 0.0000 -181555.1921 15586.8021 546.2462 0.0000 0.0000 -161547.9877 0.0000 -161547.9877 -161547.9877 0.0000 12582.6304 -6420.2249 534946.2959 12582.6304 -6420.2249
TCL: Setting parameter constraintScaling to 2.5
TCL: Minimizing for 100 steps
ETITLE: TS BOND ANGLE DIHED IMPRP ELECT VDW BOUNDARY MISC KINETIC TOTAL TEMP POTENTIAL TOTAL3 TEMPAVG PRESSURE GPRESSURE VOLUME PRESSAVG GPRESSAVG
ENERGY: 200 238.6883 694.1188 2941.3490 0.0000 -181555.1921 15586.8021 273.1231 0.0000 0.0000 -161821.1108 0.0000 -161821.1108 -161821.1108 0.0000 13229.5121 -25650.9432 534946.2959 13229.5121 -25650.9432
ENERGY: 220 251.1299 680.1232 2933.0282 0.0000 -182082.8512 15470.4891 338.7168 0.0000 0.0000 -162409.3640 0.0000 -162409.3640 -162409.3640 0.0000 12967.3185 -6091.2390 534946.2959 12967.3185 -6091.2390
ENERGY: 240 140.4387 666.6104 2928.6099 0.0000 -182464.5610 15494.2435 343.6932 0.0000 0.0000 -162890.9653 0.0000 -162890.9653 -162890.9653 0.0000 13034.2465 -6104.1976 534946.2959 13034.2465 -6104.1976
ENERGY: 260 232.7191 702.5511 2922.5526 0.0000 -183747.7900 15757.4429 379.0490 0.0000 0.0000 -163753.4753 0.0000 -163753.4753 -163753.4753 0.0000 13014.2725 -6234.2082 534946.2959 13014.2725 -6234.2082
ENERGY: 280 203.6293 704.0220 2917.7512 0.0000 -185467.7835 16245.6155 457.3387 0.0000 0.0000 -164939.4268 0.0000 -164939.4268 -164939.4268 0.0000 13144.7320 -6339.5160 534946.2959 13144.7320 -6339.5160
ENERGY: 300 196.0884 659.3904 2920.8001 0.0000 -186580.3452 16642.3155 515.5235 0.0000 0.0000 -165646.2273 0.0000 -165646.2273 -165646.2273 0.0000 13239.6458 -6352.4422 534946.2959 13239.6458 -6352.4422
TCL: Setting parameter constraintScaling to 1.25
TCL: Minimizing for 100 steps
ETITLE: TS BOND ANGLE DIHED IMPRP ELECT VDW BOUNDARY MISC KINETIC TOTAL TEMP POTENTIAL TOTAL3 TEMPAVG PRESSURE GPRESSURE VOLUME PRESSAVG GPRESSAVG
ENERGY: 300 196.0884 659.3904 2920.8001 0.0000 -186580.3452 16642.3155 257.7617 0.0000 0.0000 -165903.9891 0.0000 -165903.9891 -165903.9891 0.0000 13702.6369 -26418.9735 534946.2959 13702.6369 -26418.9735
ENERGY: 320 154.9927 660.3888 2909.1760 0.0000 -187281.0791 16814.7994 287.8008 0.0000 0.0000 -166453.9213 0.0000 -166453.9213 -166453.9213 0.0000 13710.3599 -5956.5916 534946.2959 13710.3599 -5956.5916
ENERGY: 340 164.6216 655.7595 2910.1101 0.0000 -187803.8847 16975.8980 309.4957 0.0000 0.0000 -166787.9998 0.0000 -166787.9998 -166787.9998 0.0000 13770.3832 -5959.3292 534946.2959 13770.3832 -5959.3292
ENERGY: 360 142.0690 657.5492 2914.6056 0.0000 -188891.8354 17364.7983 348.9643 0.0000 0.0000 -167463.8490 0.0000 -167463.8490 -167463.8490 0.0000 13845.7967 -5987.0354 534946.2959 13845.7967 -5987.0354
ENERGY: 380 149.6094 645.5321 2900.0210 0.0000 -189108.0086 17424.3195 345.8137 0.0000 0.0000 -167642.7129 0.0000 -167642.7129 -167642.7129 0.0000 13925.0285 -5953.0767 534946.2959 13925.0285 -5953.0767
ENERGY: 400 173.4874 674.7944 2905.2247 0.0000 -189742.4535 17611.6002 360.5386 0.0000 0.0000 -168016.8082 0.0000 -168016.8082 -168016.8082 0.0000 13945.0480 -5994.6547 534946.2959 13945.0480 -5994.6547
TCL: Setting parameter constraintScaling to 0.625
TCL: Minimizing for 100 steps
ETITLE: TS BOND ANGLE DIHED IMPRP ELECT VDW BOUNDARY MISC KINETIC TOTAL TEMP POTENTIAL TOTAL3 TEMPAVG PRESSURE GPRESSURE VOLUME PRESSAVG GPRESSAVG
ENERGY: 400 173.4874 674.7944 2905.2247 0.0000 -189742.4535 17611.6002 180.2693 0.0000 0.0000 -168197.0775 0.0000 -168197.0775 -168197.0775 0.0000 14228.5394 -26631.4864 534946.2959 14228.5394 -26631.4864
ENERGY: 420 137.9214 643.2180 2900.7088 0.0000 -189941.0261 17664.1665 189.5038 0.0000 0.0000 -168405.5075 0.0000 -168405.5075 -168405.5075 0.0000 14265.2044 -5714.5547 534946.2959 14265.2044 -5714.5547
ENERGY: 440 211.9671 717.4564 2905.9302 0.0000 -191102.6803 18066.8340 241.7252 0.0000 0.0000 -168958.7674 0.0000 -168958.7674 -168958.7674 0.0000 14297.4013 -5793.2063 534946.2959 14297.4013 -5793.2063
ENERGY: 460 198.5818 680.6352 2886.6668 0.0000 -192979.2880 18777.0248 309.0276 0.0000 0.0000 -170127.3517 0.0000 -170127.3517 -170127.3517 0.0000 14548.8997 -5749.1027 534946.2959 14548.8997 -5749.1027
ENERGY: 480 160.7718 663.7685 2885.9383 0.0000 -193279.3674 18885.2997 301.5224 0.0000 0.0000 -170382.0667 0.0000 -170382.0667 -170382.0667 0.0000 14659.1810 -5683.6337 534946.2959 14659.1810 -5683.6337
ENERGY: 500 195.2563 705.0816 2904.6617 0.0000 -194098.9133 19227.4097 293.1020 0.0000 0.0000 -170773.4021 0.0000 -170773.4021 -170773.4021 0.0000 14845.3256 -5588.3037 534946.2959 14845.3256 -5588.3037
TCL: Setting parameter constraintScaling to 0.3125
TCL: Minimizing for 100 steps
ETITLE: TS BOND ANGLE DIHED IMPRP ELECT VDW BOUNDARY MISC KINETIC TOTAL TEMP POTENTIAL TOTAL3 TEMPAVG PRESSURE GPRESSURE VOLUME PRESSAVG GPRESSAVG
ENERGY: 500 195.2563 705.0816 2904.6617 0.0000 -194098.9133 19227.4097 146.5510 0.0000 0.0000 -170919.9531 0.0000 -170919.9531 -170919.9531 0.0000 15039.4992 -26849.1764 534946.2959 15039.4992 -26849.1764
ENERGY: 520 140.0060 635.9988 2881.8336 0.0000 -194215.8564 19244.6161 152.1042 0.0000 0.0000 -171161.2977 0.0000 -171161.2977 -171161.2977 0.0000 15063.5267 -5391.7290 534946.2959 15063.5267 -5391.7290
ENERGY: 540 206.7072 679.4698 2881.6323 0.0000 -194932.9688 19491.1609 181.6026 0.0000 0.0000 -171492.3960 0.0000 -171492.3960 -171492.3960 0.0000 15069.7678 -5439.1818 534946.2959 15069.7678 -5439.1818
ENERGY: 560 206.2316 691.9201 2871.5206 0.0000 -196111.2276 19958.1906 218.7975 0.0000 0.0000 -172164.5672 0.0000 -172164.5672 -172164.5672 0.0000 15243.3899 -5404.9412 534946.2959 15243.3899 -5404.9412
ENERGY: 580 176.7738 674.4559 2869.9466 0.0000 -196478.4325 20071.2027 208.8963 0.0000 0.0000 -172477.1571 0.0000 -172477.1571 -172477.1571 0.0000 15345.0041 -5352.0521 534946.2959 15345.0041 -5352.0521
ENERGY: 600 173.8248 672.4179 2876.4056 0.0000 -196973.8628 20305.7089 203.9030 0.0000 0.0000 -172741.6026 0.0000 -172741.6026 -172741.6026 0.0000 15529.9571 -5241.0008 534946.2959 15529.9571 -5241.0008
TCL: Setting parameter constraintScaling to 0.15625
TCL: Minimizing for 100 steps
ETITLE: TS BOND ANGLE DIHED IMPRP ELECT VDW BOUNDARY MISC KINETIC TOTAL TEMP POTENTIAL TOTAL3 TEMPAVG PRESSURE GPRESSURE VOLUME PRESSAVG GPRESSAVG
ENERGY: 600 173.8248 672.4179 2876.4056 0.0000 -196973.8628 20305.7089 101.9515 0.0000 0.0000 -172843.5541 0.0000 -172843.5541 -172843.5541 0.0000 15649.5013 -26924.2997 534946.2959 15649.5013 -26924.2997
ENERGY: 620 154.2962 648.9676 2862.8234 0.0000 -197334.7197 20390.1601 113.1037 0.0000 0.0000 -173165.3686 0.0000 -173165.3686 -173165.3686 0.0000 15617.4013 -5190.6465 534946.2959 15617.4013 -5190.6465
ENERGY: 640 220.4130 687.8023 2861.8345 0.0000 -197944.9540 20650.2181 130.8551 0.0000 0.0000 -173393.8310 0.0000 -173393.8310 -173393.8310 0.0000 15644.7552 -5217.3830 534946.2959 15644.7552 -5217.3830
ENERGY: 660 176.1642 698.3537 2861.5683 0.0000 -198439.2106 20833.8175 140.6154 0.0000 0.0000 -173728.6916 0.0000 -173728.6916 -173728.6916 0.0000 15745.0363 -5176.7927 534946.2959 15745.0363 -5176.7927
ENERGY: 680 160.4034 668.1505 2853.0934 0.0000 -198540.6812 20835.8527 136.1215 0.0000 0.0000 -173887.0597 0.0000 -173887.0597 -173887.0597 0.0000 15765.7986 -5172.2912 534946.2959 15765.7986 -5172.2912
ENERGY: 700 160.2574 666.4990 2861.0926 0.0000 -198904.3897 20985.1365 132.1698 0.0000 0.0000 -174099.2344 0.0000 -174099.2344 -174099.2344 0.0000 15915.0636 -5074.9031 534946.2959 15915.0636 -5074.9031
TCL: Setting parameter constraintScaling to 0.078125
TCL: Minimizing for 100 steps
ETITLE: TS BOND ANGLE DIHED IMPRP ELECT VDW BOUNDARY MISC KINETIC TOTAL TEMP POTENTIAL TOTAL3 TEMPAVG PRESSURE GPRESSURE VOLUME PRESSAVG GPRESSAVG
ENERGY: 700 160.2574 666.4990 2861.0926 0.0000 -198904.3897 20985.1365 66.0849 0.0000 0.0000 -174165.3193 0.0000 -174165.3193 -174165.3193 0.0000 15984.3040 -27047.2924 534946.2959 15984.3040 -27047.2924
ENERGY: 720 156.4556 659.6800 2847.0308 0.0000 -199182.8014 21062.9672 71.0691 0.0000 0.0000 -174385.5988 0.0000 -174385.5988 -174385.5988 0.0000 15965.3084 -5050.6088 534946.2959 15965.3084 -5050.6088
ENERGY: 740 310.1023 735.7503 2854.3747 0.0000 -199763.8164 21332.3266 80.8984 0.0000 0.0000 -174450.3641 0.0000 -174450.3641 -174450.3641 0.0000 16011.7398 -5060.8125 534946.2959 16011.7398 -5060.8125
ENERGY: 760 168.4077 659.2193 2842.4433 0.0000 -199992.2493 21363.2192 80.5135 0.0000 0.0000 -174878.4463 0.0000 -174878.4463 -174878.4463 0.0000 16065.8862 -5041.6005 534946.2959 16065.8862 -5041.6005
ENERGY: 780 172.3293 661.1509 2848.0827 0.0000 -200492.5687 21558.3881 81.0277 0.0000 0.0000 -175171.5900 0.0000 -175171.5900 -175171.5900 0.0000 16220.1461 -4955.6152 534946.2959 16220.1461 -4955.6152
ENERGY: 800 157.8081 648.1160 2843.7882 0.0000 -200841.4982 21689.2341 84.0162 0.0000 0.0000 -175418.5357 0.0000 -175418.5357 -175418.5357 0.0000 16318.2096 -4903.7801 534946.2959 16318.2096 -4903.7801
TCL: Setting parameter constraintScaling to 0.0390625
TCL: Minimizing for 100 steps
ETITLE: TS BOND ANGLE DIHED IMPRP ELECT VDW BOUNDARY MISC KINETIC TOTAL TEMP POTENTIAL TOTAL3 TEMPAVG PRESSURE GPRESSURE VOLUME PRESSAVG GPRESSAVG
ENERGY: 800 157.8081 648.1160 2843.7882 0.0000 -200841.4982 21689.2341 42.0081 0.0000 0.0000 -175460.5438 0.0000 -175460.5438 -175460.5438 0.0000 16358.0877 -27136.6182 534946.2959 16358.0877 -27136.6182
ENERGY: 820 162.2947 649.7436 2833.5033 0.0000 -201099.9408 21774.9465 44.4318 0.0000 0.0000 -175635.0209 0.0000 -175635.0209 -175635.0209 0.0000 16347.2172 -4896.4387 534946.2959 16347.2172 -4896.4387
ENERGY: 840 172.4780 652.2884 2831.5682 0.0000 -201414.7716 21908.7554 46.6592 0.0000 0.0000 -175803.0223 0.0000 -175803.0223 -175803.0223 0.0000 16381.3616 -4888.5494 534946.2959 16381.3616 -4888.5494
ENERGY: 860 184.3966 657.9569 2826.9945 0.0000 -202142.8640 22200.1628 50.6483 0.0000 0.0000 -176222.7049 0.0000 -176222.7049 -176222.7049 0.0000 16517.7810 -4839.7437 534946.2959 16517.7810 -4839.7437
ENERGY: 880 163.3806 660.4318 2826.9984 0.0000 -202407.4111 22303.4156 51.5570 0.0000 0.0000 -176401.6276 0.0000 -176401.6276 -176401.6276 0.0000 16596.1053 -4798.6173 534946.2959 16596.1053 -4798.6173
ENERGY: 900 173.9956 650.2096 2825.2007 0.0000 -202818.5363 22476.5414 52.5381 0.0000 0.0000 -176640.0508 0.0000 -176640.0508 -176640.0508 0.0000 16692.4676 -4749.2615 534946.2959 16692.4676 -4749.2615
TCL: Setting parameter constraintScaling to 0.01953125
TCL: Minimizing for 100 steps
ETITLE: TS BOND ANGLE DIHED IMPRP ELECT VDW BOUNDARY MISC KINETIC TOTAL TEMP POTENTIAL TOTAL3 TEMPAVG PRESSURE GPRESSURE VOLUME PRESSAVG GPRESSAVG
ENERGY: 900 173.9956 650.2096 2825.2007 0.0000 -202818.5363 22476.5414 26.2691 0.0000 0.0000 -176666.3199 0.0000 -176666.3199 -176666.3199 0.0000 16715.2257 -27244.7964 534946.2959 16715.2257 -27244.7964
ENERGY: 920 190.9552 665.0599 2821.6688 0.0000 -203062.4205 22565.5218 27.3087 0.0000 0.0000 -176791.9061 0.0000 -176791.9061 -176791.9061 0.0000 16736.9422 -4730.5995 534946.2959 16736.9422 -4730.5995
ENERGY: 940 172.8542 658.6590 2820.7361 0.0000 -203436.2485 22728.3074 28.5427 0.0000 0.0000 -177027.1492 0.0000 -177027.1492 -177027.1492 0.0000 16813.8320 -4696.1411 534946.2959 16813.8320 -4696.1411
ENERGY: 960 176.3676 663.3092 2817.7644 0.0000 -203944.9509 22944.2276 29.8754 0.0000 0.0000 -177313.4065 0.0000 -177313.4065 -177313.4065 0.0000 16933.0241 -4642.9676 534946.2959 16933.0241 -4642.9676
ENERGY: 980 169.9646 653.8486 2817.8460 0.0000 -204305.1686 23112.0385 30.3141 0.0000 0.0000 -177521.1568 0.0000 -177521.1568 -177521.1568 0.0000 17043.4056 -4576.8096 534946.2959 17043.4056 -4576.8096
ENERGY: 1000 171.4848 654.6150 2816.8188 0.0000 -205095.2336 23485.7538 32.5393 0.0000 0.0000 -177934.0219 0.0000 -177934.0219 -177934.0219 0.0000 17224.1119 -4482.8811 534946.2959 17224.1119 -4482.8811
TCL: Setting parameter constraintScaling to 0
TCL: Minimizing for 5000 steps
ETITLE: TS BOND ANGLE DIHED IMPRP ELECT VDW BOUNDARY MISC KINETIC TOTAL TEMP POTENTIAL TOTAL3 TEMPAVG PRESSURE GPRESSURE VOLUME PRESSAVG GPRESSAVG
ENERGY: 1000 171.4848 654.6150 2816.8188 0.0000 -205095.2336 23485.7538 0.0000 0.0000 0.0000 -177966.5613 0.0000 -177966.5613 -177966.5613 0.0000 17250.4129 -27263.3511 534946.2959 17250.4129 -27263.3511
ENERGY: 2000 167.3860 669.2763 2804.2449 0.0000 -214645.9180 27771.1375 0.0000 0.0000 0.0000 -183233.8732 0.0000 -183233.8732 -183233.8732 0.0000 19531.2734 -3253.6219 534946.2959 19531.2734 -3253.6219
ENERGY: 3000 176.4070 671.2792 2796.0326 0.0000 -217556.4601 28941.2915 0.0000 0.0000 0.0000 -184971.4498 0.0000 -184971.4498 -184971.4498 0.0000 20147.6471 -2672.5804 534946.2959 20147.6471 -2672.5804
ENERGY: 4000 166.4265 664.1522 2789.5681 0.0000 -218860.1511 29463.1766 0.0000 0.0000 0.0000 -185776.8277 0.0000 -185776.8277 -185776.8277 0.0000 20414.4653 -2538.2701 534946.2959 20414.4653 -2538.2701
ENERGY: 5000 164.9657 661.8652 2784.2732 0.0000 -219570.2469 29754.8354 0.0000 0.0000 0.0000 -186204.3073 0.0000 -186204.3073 -186204.3073 0.0000 20571.7462 -2441.3816 534946.2959 20571.7462 -2441.3816
ENERGY: 6000 165.8447 662.4569 2784.0806 0.0000 -219914.4896 29853.6870 0.0000 0.0000 0.0000 -186448.4204 0.0000 -186448.4204 -186448.4204 0.0000 20621.7895 -2425.1863 534946.2959 20621.7895 -2425.1863
