Info: SIMULATION PARAMETERS:
Info: TIMESTEP               2
Info: NUMBER OF STEPS        0
Info: STEPS PER CYCLE        10
Info: PERIODIC CELL BASIS 1  72.449 0 0
Info: PERIODIC CELL BASIS 2  0 93.247 0
Info: PERIODIC CELL BASIS 3  0 0 79.185
Info: PERIODIC CELL CENTER   -0.248 -0.156 -0.047
Info: WRAPPING WATERS AROUND PERIODIC BOUNDARIES ON OUTPUT.
Info: WRAPPING ALL CLUSTERS AROUND PERIODIC BOUNDARIES ON OUTPUT.
Info: FIRST LDB TIMESTEP     50
Info: LAST LDB TIMESTEP     -1
Info: HOM BACKGROUND SCALING 1
Info: PME BACKGROUND SCALING 1
Info: MIN ATOMS PER PATCH    40
Info: INITIAL TEMPERATURE    0
Info: CENTER OF MASS MOVING INITIALLY? NO
Info: DIELECTRIC             1
Info: EXCLUDE                SCALED ONE-FOUR
Info: 1-4 ELECTROSTATICS SCALED BY 0.833333
Info: MODIFIED 1-4 VDW PARAMETERS WILL BE USED
Info: NO DCD TRAJECTORY OUTPUT
Info: NO EXTENDED SYSTEM TRAJECTORY OUTPUT
Info: NO VELOCITY DCD OUTPUT
Info: NO FORCE DCD OUTPUT
Info: OUTPUT FILENAME        ../replicas/rep7/equilibration/eq0
Info: NO RESTART FILE
Info: SWITCHING ACTIVE
Info: SWITCHING ON           10
Info: SWITCHING OFF          12
Info: PAIRLIST DISTANCE      13.5
Info: PAIRLIST SHRINK RATE   0.01
Info: PAIRLIST GROW RATE     0.01
Info: PAIRLIST TRIGGER       0.3
Info: PAIRLISTS PER CYCLE    2
Info: PAIRLISTS ENABLED
Info: MARGIN                 0
Info: HYDROGEN GROUP CUTOFF  2.5
Info: PATCH DIMENSION        16
Info: ENERGY OUTPUT STEPS    500
Info: CROSSTERM ENERGY INCLUDED IN DIHEDRAL
Info: TIMING OUTPUT STEPS    5000
Info: PRESSURE OUTPUT STEPS  500
Info: HARMONIC CONSTRAINTS ACTIVE
Info: HARMONIC CONS EXP      2
Info: HARMONIC CONS SCALING  10
Info: CONJUGATE GRADIENT MINIMIZATION ACTIVE
Info: LINE MINIMIZATION GOAL = 0.001
Info: BABY STEP SIZE = 0.01
Info: TINY STEP SIZE = 1e-06
Info: PARTICLE MESH EWALD (PME) ACTIVE
Info: PME TOLERANCE               1e-06
Info: PME EWALD COEFFICIENT       0.257952
Info: PME INTERPOLATION ORDER     4
Info: PME GRID DIMENSIONS         80 96 80
Info: PME MAXIMUM GRID SPACING    1
Info: FULL ELECTROSTATIC EVALUATION FREQUENCY      2
Info: USING VERLET I (r-RESPA) MTS SCHEME.
Info: C1 SPLITTING OF LONG RANGE ELECTROSTATICS
Info: PLACING ATOMS IN PATCHES BY HYDROGEN GROUPS
Info: RIGID BONDS TO HYDROGEN : ALL
Info:         ERROR TOLERANCE : 1e-05
Info:          MAX ITERATIONS : 100
Info: RIGID WATER USING SETTLE ALGORITHM
Info: RANDOM NUMBER SEED     1503692482
Info: USE HYDROGEN BONDS?    NO
Info: Using AMBER format force field!
Info: AMBER PARM FILE        ../build/complex.top
Info: COORDINATE PDB         ../build/complex.pdb
Info: Exclusions in PARM file will be ignored!
Info: SCNB (VDW SCALING)     2
Info: USING ARITHMETIC MEAN TO COMBINE L-J SIGMA PARAMETERS
Info: SUMMARY OF PARAMETERS:
Info: 71 BONDS
Info: 145 ANGLES
Info: 76 DIHEDRAL
Info: 0 IMPROPER
Info: 0 CROSSTERM
Info: 0 VDW
Info: 190 VDW_PAIRS
Info: 0 NBTHOLE_PAIRS
Info: STRUCTURE SUMMARY:
Info: 49394 ATOMS
Info: 49448 BONDS
Info: 8698 ANGLES
Info: 18780 DIHEDRALS
Info: 0 IMPROPERS
Info: 0 CROSSTERMS
Info: 0 EXCLUSIONS
Info: 2336 CONSTRAINTS
Info: 47058 RIGID BONDS
Info: 101124 DEGREES OF FREEDOM
Info: 17225 HYDROGEN GROUPS
Info: 4 ATOMS IN LARGEST HYDROGEN GROUP
Info: 17225 MIGRATION GROUPS
Info: 4 ATOMS IN LARGEST MIGRATION GROUP
Info: TOTAL MASS = 301478 amu
Info: TOTAL CHARGE = 1.00115e-05 e
Info: MASS DENSITY = 0.935846 g/cm^3
Info: ATOM DENSITY = 0.0923345 atoms/A^3
Info: ADDED 70656 IMPLICIT EXCLUSIONS
Info: NONBONDED TABLE R-SQUARED SPACING: 0.0625
Info: NONBONDED TABLE SIZE: 769 POINTS
Info: REMOVING COM VELOCITY 0 0 0
TCL: Minimizing for 100 steps
ETITLE: TS BOND ANGLE DIHED IMPRP ELECT VDW BOUNDARY MISC KINETIC TOTAL TEMP POTENTIAL TOTAL3 TEMPAVG PRESSURE GPRESSURE VOLUME PRESSAVG GPRESSAVG
ENERGY: 0 155.4176 1012.2698 2855.7272 0.0000 -154496.7911 207729.2052 0.0468 0.0000 0.0000 57255.8755 0.0000 57255.8755 57255.8755 0.0000 116350.2532 86546.1670 534946.2959 116350.2532 86546.1670
ENERGY: 20 304.7544 935.7911 2893.4663 0.0000 -158672.9399 17936.6597 143.9454 0.0000 0.0000 -136458.3231 0.0000 -136458.3231 -136458.3231 0.0000 16523.9390 -239.4555 534946.2959 16523.9390 -239.4555
ENERGY: 40 198.7440 799.5727 2896.9273 0.0000 -162811.4540 16417.9535 221.3030 0.0000 0.0000 -142276.9536 0.0000 -142276.9536 -142276.9536 0.0000 15011.2701 -2135.4701 534946.2959 15011.2701 -2135.4701
ENERGY: 60 130.5283 715.3440 2898.2166 0.0000 -167496.1573 15446.7538 315.2796 0.0000 0.0000 -147990.0349 0.0000 -147990.0349 -147990.0349 0.0000 13793.8836 -3799.3988 534946.2959 13793.8836 -3799.3988
ENERGY: 80 431.2749 765.6310 2904.3786 0.0000 -169937.5365 15121.1515 372.0123 0.0000 0.0000 -150343.0882 0.0000 -150343.0882 -150343.0882 0.0000 13270.3292 -4577.2475 534946.2959 13270.3292 -4577.2475
ENERGY: 100 119.3853 710.0599 2905.2589 0.0000 -171259.7117 14991.7871 387.3612 0.0000 0.0000 -152145.8593 0.0000 -152145.8593 -152145.8593 0.0000 13056.2656 -4908.1722 534946.2959 13056.2656 -4908.1722
TCL: Setting parameter constraintScaling to 5.0
TCL: Minimizing for 100 steps
ETITLE: TS BOND ANGLE DIHED IMPRP ELECT VDW BOUNDARY MISC KINETIC TOTAL TEMP POTENTIAL TOTAL3 TEMPAVG PRESSURE GPRESSURE VOLUME PRESSAVG GPRESSAVG
ENERGY: 100 119.3853 710.0599 2905.2589 0.0000 -171259.7117 14991.7871 193.6806 0.0000 0.0000 -152339.5399 0.0000 -152339.5399 -152339.5399 0.0000 13672.7717 -23021.8181 534946.2959 13672.7717 -23021.8181
ENERGY: 120 108.8787 687.5820 2912.9264 0.0000 -172865.8710 14798.2715 281.1908 0.0000 0.0000 -154077.0216 0.0000 -154077.0216 -154077.0216 0.0000 13218.2583 -4906.0118 534946.2959 13218.2583 -4906.0118
ENERGY: 140 309.3517 708.8508 2913.8025 0.0000 -174236.8657 14731.4710 326.6455 0.0000 0.0000 -155246.7442 0.0000 -155246.7442 -155246.7442 0.0000 12971.5081 -5303.2865 534946.2959 12971.5081 -5303.2865
ENERGY: 160 265.6755 683.2422 2923.1996 0.0000 -176277.8103 14757.4819 382.9825 0.0000 0.0000 -157265.2286 0.0000 -157265.2286 -157265.2286 0.0000 12740.6440 -5743.6137 534946.2959 12740.6440 -5743.6137
ENERGY: 180 268.6106 744.1023 2928.5662 0.0000 -178997.3036 15023.8317 473.4018 0.0000 0.0000 -159558.7910 0.0000 -159558.7910 -159558.7910 0.0000 12521.5039 -6224.1196 534946.2959 12521.5039 -6224.1196
ENERGY: 200 239.1994 694.0559 2941.3820 0.0000 -181557.7085 15587.3906 546.2941 0.0000 0.0000 -161549.3865 0.0000 -161549.3865 -161549.3865 0.0000 12582.6721 -6422.8710 534946.2959 12582.6721 -6422.8710
TCL: Setting parameter constraintScaling to 2.5
TCL: Minimizing for 100 steps
ETITLE: TS BOND ANGLE DIHED IMPRP ELECT VDW BOUNDARY MISC KINETIC TOTAL TEMP POTENTIAL TOTAL3 TEMPAVG PRESSURE GPRESSURE VOLUME PRESSAVG GPRESSAVG
ENERGY: 200 239.1994 694.0559 2941.3820 0.0000 -181557.7085 15587.3906 273.1470 0.0000 0.0000 -161822.5336 0.0000 -161822.5336 -161822.5336 0.0000 13229.6143 -25653.7972 534946.2959 13229.6143 -25653.7972
ENERGY: 220 245.5847 676.9008 2932.9958 0.0000 -182074.9768 15472.7082 337.2341 0.0000 0.0000 -162409.5532 0.0000 -162409.5532 -162409.5532 0.0000 12973.3326 -6086.3917 534946.2959 12973.3326 -6086.3917
ENERGY: 240 154.2049 693.7526 2928.7214 0.0000 -182682.1031 15529.8570 347.0752 0.0000 0.0000 -163028.4922 0.0000 -163028.4922 -163028.4922 0.0000 13033.4420 -6129.8927 534946.2959 13033.4420 -6129.8927
ENERGY: 260 179.0263 683.2136 2920.1748 0.0000 -184290.5172 15885.7137 399.1134 0.0000 0.0000 -164223.2754 0.0000 -164223.2754 -164223.2754 0.0000 13053.4384 -6273.5552 534946.2959 13053.4384 -6273.5552
ENERGY: 280 169.1816 700.6804 2917.5824 0.0000 -185418.3577 16226.6433 454.9208 0.0000 0.0000 -164949.3492 0.0000 -164949.3492 -164949.3492 0.0000 13142.1254 -6337.6427 534946.2959 13142.1254 -6337.6427
ENERGY: 300 126.7191 639.4597 2916.2463 0.0000 -186089.5341 16443.4397 481.2875 0.0000 0.0000 -165482.3819 0.0000 -165482.3819 -165482.3819 0.0000 13206.6850 -6341.4320 534946.2959 13206.6850 -6341.4320
TCL: Setting parameter constraintScaling to 1.25
TCL: Minimizing for 100 steps
ETITLE: TS BOND ANGLE DIHED IMPRP ELECT VDW BOUNDARY MISC KINETIC TOTAL TEMP POTENTIAL TOTAL3 TEMPAVG PRESSURE GPRESSURE VOLUME PRESSAVG GPRESSAVG
ENERGY: 300 126.7191 639.4597 2916.2463 0.0000 -186089.5341 16443.4397 240.6437 0.0000 0.0000 -165723.0256 0.0000 -165723.0256 -165723.0256 0.0000 13654.9678 -26350.8797 534946.2959 13654.9678 -26350.8797
ENERGY: 320 265.2798 657.1661 2911.4777 0.0000 -186847.1160 16631.5307 286.4356 0.0000 0.0000 -166095.2262 0.0000 -166095.2262 -166095.2262 0.0000 13610.9854 -6007.1634 534946.2959 13610.9854 -6007.1634
ENERGY: 340 244.6310 641.1371 2911.5240 0.0000 -187577.6743 16879.3831 303.4096 0.0000 0.0000 -166597.5896 0.0000 -166597.5896 -166597.5896 0.0000 13629.4728 -6039.1942 534946.2959 13629.4728 -6039.1942
ENERGY: 360 131.1222 665.5884 2907.2616 0.0000 -189100.4327 17417.5728 357.6175 0.0000 0.0000 -167621.2701 0.0000 -167621.2701 -167621.2701 0.0000 13912.1021 -5981.0860 534946.2959 13912.1021 -5981.0860
ENERGY: 380 158.9903 639.4435 2900.1620 0.0000 -191011.3954 18204.7837 424.1116 0.0000 0.0000 -168683.9043 0.0000 -168683.9043 -168683.9043 0.0000 14144.7644 -5930.2842 534946.2959 14144.7644 -5930.2842
ENERGY: 400 146.9652 666.9580 2903.0854 0.0000 -191403.2761 18306.0958 421.9126 0.0000 0.0000 -168958.2591 0.0000 -168958.2591 -168958.2591 0.0000 14283.4359 -5874.5278 534946.2959 14283.4359 -5874.5278
TCL: Setting parameter constraintScaling to 0.625
TCL: Minimizing for 100 steps
ETITLE: TS BOND ANGLE DIHED IMPRP ELECT VDW BOUNDARY MISC KINETIC TOTAL TEMP POTENTIAL TOTAL3 TEMPAVG PRESSURE GPRESSURE VOLUME PRESSAVG GPRESSAVG
ENERGY: 400 146.9652 666.9580 2903.0854 0.0000 -191403.2761 18306.0958 210.9563 0.0000 0.0000 -169169.2154 0.0000 -169169.2154 -169169.2154 0.0000 14592.8769 -26659.9684 534946.2959 14592.8769 -26659.9684
ENERGY: 420 138.0984 639.5560 2891.7301 0.0000 -191766.4775 18390.3160 229.7085 0.0000 0.0000 -169477.0684 0.0000 -169477.0684 -169477.0684 0.0000 14553.5498 -5630.3822 534946.2959 14553.5498 -5630.3822
ENERGY: 440 155.9014 633.7974 2889.6112 0.0000 -192222.8358 18518.4465 251.2834 0.0000 0.0000 -169773.7958 0.0000 -169773.7958 -169773.7958 0.0000 14499.2896 -5708.5329 534946.2959 14499.2896 -5708.5329
ENERGY: 460 383.1137 707.6057 2889.0331 0.0000 -193307.2422 18908.9000 276.6118 0.0000 0.0000 -170141.9779 0.0000 -170141.9779 -170141.9779 0.0000 14773.4735 -5614.5225 534946.2959 14773.4735 -5614.5225
ENERGY: 480 146.2083 630.4566 2883.3358 0.0000 -193541.7300 18989.4054 285.8724 0.0000 0.0000 -170606.4514 0.0000 -170606.4514 -170606.4514 0.0000 14730.4503 -5634.2952 534946.2959 14730.4503 -5634.2952
ENERGY: 500 183.0468 703.7299 2885.8780 0.0000 -194486.1934 19356.6009 315.4510 0.0000 0.0000 -171041.4868 0.0000 -171041.4868 -171041.4868 0.0000 14885.6489 -5606.0004 534946.2959 14885.6489 -5606.0004
TCL: Setting parameter constraintScaling to 0.3125
TCL: Minimizing for 100 steps
ETITLE: TS BOND ANGLE DIHED IMPRP ELECT VDW BOUNDARY MISC KINETIC TOTAL TEMP POTENTIAL TOTAL3 TEMPAVG PRESSURE GPRESSURE VOLUME PRESSAVG GPRESSAVG
ENERGY: 500 183.0468 703.7299 2885.8780 0.0000 -194486.1934 19356.6009 157.7255 0.0000 0.0000 -171199.2123 0.0000 -171199.2123 -171199.2123 0.0000 15082.4456 -26885.1082 534946.2959 15082.4456 -26885.1082
ENERGY: 520 182.9296 665.2934 2886.5125 0.0000 -194796.6281 19464.5727 159.7967 0.0000 0.0000 -171437.5232 0.0000 -171437.5232 -171437.5232 0.0000 15192.5197 -5344.7072 534946.2959 15192.5197 -5344.7072
ENERGY: 540 371.9463 687.2375 2879.8550 0.0000 -195425.0999 19677.1168 181.7277 0.0000 0.0000 -171627.2166 0.0000 -171627.2166 -171627.2166 0.0000 15131.0049 -5440.0290 534946.2959 15131.0049 -5440.0290
ENERGY: 560 173.8535 658.1582 2867.4770 0.0000 -196376.4068 20029.5913 208.6654 0.0000 0.0000 -172438.6614 0.0000 -172438.6614 -172438.6614 0.0000 15308.5105 -5381.0168 534946.2959 15308.5105 -5381.0168
ENERGY: 580 210.4539 702.6853 2890.9316 0.0000 -196897.3447 20266.3513 202.8844 0.0000 0.0000 -172624.0383 0.0000 -172624.0383 -172624.0383 0.0000 15522.9415 -5248.7748 534946.2959 15522.9415 -5248.7748
ENERGY: 600 180.5789 657.9572 2871.9190 0.0000 -197888.5286 20665.3520 216.7072 0.0000 0.0000 -173296.0142 0.0000 -173296.0142 -173296.0142 0.0000 15690.0745 -5180.9844 534946.2959 15690.0745 -5180.9844
TCL: Setting parameter constraintScaling to 0.15625
TCL: Minimizing for 100 steps
ETITLE: TS BOND ANGLE DIHED IMPRP ELECT VDW BOUNDARY MISC KINETIC TOTAL TEMP POTENTIAL TOTAL3 TEMPAVG PRESSURE GPRESSURE VOLUME PRESSAVG GPRESSAVG
ENERGY: 600 180.5789 657.9572 2871.9190 0.0000 -197888.5285 20665.3520 108.3536 0.0000 0.0000 -173404.3678 0.0000 -173404.3678 -173404.3678 0.0000 15811.8259 -26971.1521 534946.2959 15811.8259 -26971.1521
ENERGY: 620 272.4674 716.9773 2859.7235 0.0000 -198180.5604 20735.0362 121.5296 0.0000 0.0000 -173474.8264 0.0000 -173474.8264 -173474.8264 0.0000 15743.5569 -5154.5593 534946.2959 15743.5569 -5154.5593
ENERGY: 640 182.4655 681.7070 2855.3072 0.0000 -198666.3591 20905.2451 133.5340 0.0000 0.0000 -173908.1002 0.0000 -173908.1002 -173908.1002 0.0000 15792.4742 -5159.0423 534946.2959 15792.4742 -5159.0423
ENERGY: 660 401.5567 723.3161 2867.4948 0.0000 -199698.5181 21293.1533 147.1543 0.0000 0.0000 -174265.8428 0.0000 -174265.8428 -174265.8428 0.0000 15978.1314 -5094.4458 534946.2959 15978.1314 -5094.4458
ENERGY: 680 166.6373 676.1369 2847.2228 0.0000 -199727.1316 21296.5291 147.6352 0.0000 0.0000 -174592.9704 0.0000 -174592.9704 -174592.9704 0.0000 15982.3783 -5091.0667 534946.2959 15982.3783 -5091.0667
ENERGY: 700 185.8168 691.5733 2847.6376 0.0000 -200233.5490 21510.4942 148.8224 0.0000 0.0000 -174849.2047 0.0000 -174849.2047 -174849.2047 0.0000 16132.8419 -5013.6524 534946.2959 16132.8419 -5013.6524
TCL: Setting parameter constraintScaling to 0.078125
TCL: Minimizing for 100 steps
ETITLE: TS BOND ANGLE DIHED IMPRP ELECT VDW BOUNDARY MISC KINETIC TOTAL TEMP POTENTIAL TOTAL3 TEMPAVG PRESSURE GPRESSURE VOLUME PRESSAVG GPRESSAVG
ENERGY: 700 185.8168 691.5733 2847.6376 0.0000 -200233.5490 21510.4942 74.4112 0.0000 0.0000 -174923.6159 0.0000 -174923.6159 -174923.6159 0.0000 16205.6623 -27137.3000 534946.2959 16205.6623 -27137.3000
ENERGY: 720 202.9170 669.3798 2847.3516 0.0000 -200490.2496 21577.4930 77.2802 0.0000 0.0000 -175115.8280 0.0000 -175115.8280 -175115.8280 0.0000 16234.9059 -4944.3789 534946.2959 16234.9059 -4944.3789
ENERGY: 740 161.0543 650.2242 2840.1155 0.0000 -200714.1757 21651.2645 80.9217 0.0000 0.0000 -175330.5955 0.0000 -175330.5955 -175330.5955 0.0000 16255.3838 -4943.4503 534946.2959 16255.3838 -4943.4503
ENERGY: 760 185.7722 673.8611 2836.7417 0.0000 -201072.4824 21795.3142 84.4180 0.0000 0.0000 -175496.3751 0.0000 -175496.3751 -175496.3751 0.0000 16317.0152 -4926.6814 534946.2959 16317.0152 -4926.6814
ENERGY: 780 330.0041 727.9030 2848.2182 0.0000 -202268.2621 22326.5615 92.5638 0.0000 0.0000 -175943.0115 0.0000 -175943.0115 -175943.0115 0.0000 16607.1164 -4773.8344 534946.2959 16607.1164 -4773.8344
ENERGY: 800 161.4391 663.9803 2833.0285 0.0000 -202837.1097 22573.7968 99.4372 0.0000 0.0000 -176505.4278 0.0000 -176505.4278 -176505.4278 0.0000 16731.6737 -4717.5157 534946.2959 16731.6737 -4717.5157
TCL: Setting parameter constraintScaling to 0.0390625
TCL: Minimizing for 100 steps
ETITLE: TS BOND ANGLE DIHED IMPRP ELECT VDW BOUNDARY MISC KINETIC TOTAL TEMP POTENTIAL TOTAL3 TEMPAVG PRESSURE GPRESSURE VOLUME PRESSAVG GPRESSAVG
ENERGY: 800 161.4391 663.9803 2833.0285 0.0000 -202837.1097 22573.7968 49.7186 0.0000 0.0000 -176555.1464 0.0000 -176555.1464 -176555.1464 0.0000 16774.9820 -27192.1353 534946.2959 16774.9820 -27192.1353
ENERGY: 820 201.9260 668.0931 2823.9448 0.0000 -203067.3406 22626.9296 52.0470 0.0000 0.0000 -176694.4002 0.0000 -176694.4002 -176694.4002 0.0000 16779.4084 -4703.6685 534946.2959 16779.4084 -4703.6685
ENERGY: 840 211.6658 671.7195 2823.4047 0.0000 -203547.2446 22816.8369 54.5417 0.0000 0.0000 -176969.0761 0.0000 -176969.0761 -176969.0761 0.0000 16873.3032 -4665.3620 534946.2959 16873.3032 -4665.3620
ENERGY: 860 162.4681 661.2761 2820.3043 0.0000 -203617.9794 22838.5673 54.9072 0.0000 0.0000 -177080.4563 0.0000 -177080.4563 -177080.4563 0.0000 16871.3841 -4671.0287 534946.2959 16871.3841 -4671.0287
ENERGY: 880 202.7385 655.8894 2820.4506 0.0000 -204119.0300 23059.2320 56.4528 0.0000 0.0000 -177324.2666 0.0000 -177324.2666 -177324.2666 0.0000 16996.8171 -4602.0033 534946.2959 16996.8171 -4602.0033
ENERGY: 900 163.7736 657.7965 2817.3093 0.0000 -204215.5423 23092.4410 57.3586 0.0000 0.0000 -177426.8634 0.0000 -177426.8634 -177426.8634 0.0000 17006.4537 -4607.7545 534946.2959 17006.4537 -4607.7545
TCL: Setting parameter constraintScaling to 0.01953125
TCL: Minimizing for 100 steps
ETITLE: TS BOND ANGLE DIHED IMPRP ELECT VDW BOUNDARY MISC KINETIC TOTAL TEMP POTENTIAL TOTAL3 TEMPAVG PRESSURE GPRESSURE VOLUME PRESSAVG GPRESSAVG
ENERGY: 900 163.7736 657.7965 2817.3093 0.0000 -204215.5423 23092.4410 28.6793 0.0000 0.0000 -177455.5427 0.0000 -177455.5427 -177455.5427 0.0000 17030.2751 -27266.9978 534946.2959 17030.2751 -27266.9978
ENERGY: 920 234.5301 667.2005 2815.8050 0.0000 -204418.4796 23174.2742 29.5324 0.0000 0.0000 -177497.1375 0.0000 -177497.1375 -177497.1375 0.0000 17063.9335 -4573.7895 534946.2959 17063.9335 -4573.7895
ENERGY: 940 171.6841 658.4970 2814.4357 0.0000 -204750.5965 23316.5476 30.6864 0.0000 0.0000 -177758.7457 0.0000 -177758.7457 -177758.7457 0.0000 17135.7193 -4534.6112 534946.2959 17135.7193 -4534.6112
ENERGY: 960 166.6354 657.8719 2814.2725 0.0000 -204920.1557 23386.6979 31.0077 0.0000 0.0000 -177863.6704 0.0000 -177863.6704 -177863.6704 0.0000 17172.3403 -4515.0650 534946.2959 17172.3403 -4515.0650
ENERGY: 980 190.6178 653.8541 2812.7769 0.0000 -205469.1584 23630.6284 32.6101 0.0000 0.0000 -178148.6712 0.0000 -178148.6712 -178148.6712 0.0000 17286.8654 -4460.4282 534946.2959 17286.8654 -4460.4282
ENERGY: 1000 161.6596 650.8082 2808.6918 0.0000 -205748.7006 23758.6555 33.5449 0.0000 0.0000 -178335.3405 0.0000 -178335.3405 -178335.3405 0.0000 17375.4414 -4416.2847 534946.2959 17375.4414 -4416.2847
TCL: Setting parameter constraintScaling to 0
TCL: Minimizing for 5000 steps
ETITLE: TS BOND ANGLE DIHED IMPRP ELECT VDW BOUNDARY MISC KINETIC TOTAL TEMP POTENTIAL TOTAL3 TEMPAVG PRESSURE GPRESSURE VOLUME PRESSAVG GPRESSAVG
ENERGY: 1000 161.6596 650.8082 2808.6918 0.0000 -205748.7006 23758.6555 0.0000 0.0000 0.0000 -178368.8855 0.0000 -178368.8855 -178368.8855 0.0000 17401.8677 -27261.4893 534946.2959 17401.8677 -27261.4893
ENERGY: 2000 168.0018 663.7835 2802.2710 0.0000 -214658.0718 27925.5820 0.0000 0.0000 0.0000 -183098.4335 0.0000 -183098.4335 -183098.4335 0.0000 19628.5714 -3154.9266 534946.2959 19628.5714 -3154.9266
ENERGY: 3000 167.6187 664.9684 2792.3728 0.0000 -217587.9286 28943.3744 0.0000 0.0000 0.0000 -185019.5943 0.0000 -185019.5943 -185019.5943 0.0000 20138.4088 -2675.9479 534946.2959 20138.4088 -2675.9479
ENERGY: 4000 166.1043 662.1618 2789.9483 0.0000 -218935.9180 29500.1183 0.0000 0.0000 0.0000 -185817.5852 0.0000 -185817.5852 -185817.5852 0.0000 20440.7352 -2514.9713 534946.2959 20440.7352 -2514.9713
ENERGY: 5000 165.3969 664.1980 2793.9431 0.0000 -219502.5942 29692.7580 0.0000 0.0000 0.0000 -186186.2982 0.0000 -186186.2982 -186186.2982 0.0000 20538.0139 -2462.7413 534946.2959 20538.0139 -2462.7413
ENERGY: 6000 166.0145 666.1312 2791.6366 0.0000 -219945.3256 29889.2839 0.0000 0.0000 0.0000 -186432.2594 0.0000 -186432.2594 -186432.2594 0.0000 20639.5449 -2404.9239 534946.2959 20639.5449 -2404.9239
