Info: SIMULATION PARAMETERS:
Info: TIMESTEP               2
Info: NUMBER OF STEPS        0
Info: STEPS PER CYCLE        10
Info: PERIODIC CELL BASIS 1  72.449 0 0
Info: PERIODIC CELL BASIS 2  0 93.247 0
Info: PERIODIC CELL BASIS 3  0 0 79.185
Info: PERIODIC CELL CENTER   -0.248 -0.156 -0.047
Info: WRAPPING WATERS AROUND PERIODIC BOUNDARIES ON OUTPUT.
Info: WRAPPING ALL CLUSTERS AROUND PERIODIC BOUNDARIES ON OUTPUT.
Info: FIRST LDB TIMESTEP     50
Info: LAST LDB TIMESTEP     -1
Info: HOM BACKGROUND SCALING 1
Info: PME BACKGROUND SCALING 1
Info: MIN ATOMS PER PATCH    40
Info: INITIAL TEMPERATURE    0
Info: CENTER OF MASS MOVING INITIALLY? NO
Info: DIELECTRIC             1
Info: EXCLUDE                SCALED ONE-FOUR
Info: 1-4 ELECTROSTATICS SCALED BY 0.833333
Info: MODIFIED 1-4 VDW PARAMETERS WILL BE USED
Info: NO DCD TRAJECTORY OUTPUT
Info: NO EXTENDED SYSTEM TRAJECTORY OUTPUT
Info: NO VELOCITY DCD OUTPUT
Info: NO FORCE DCD OUTPUT
Info: OUTPUT FILENAME        ../replicas/rep100/equilibration/eq0
Info: NO RESTART FILE
Info: SWITCHING ACTIVE
Info: SWITCHING ON           10
Info: SWITCHING OFF          12
Info: PAIRLIST DISTANCE      13.5
Info: PAIRLIST SHRINK RATE   0.01
Info: PAIRLIST GROW RATE     0.01
Info: PAIRLIST TRIGGER       0.3
Info: PAIRLISTS PER CYCLE    2
Info: PAIRLISTS ENABLED
Info: MARGIN                 0
Info: HYDROGEN GROUP CUTOFF  2.5
Info: PATCH DIMENSION        16
Info: ENERGY OUTPUT STEPS    500
Info: CROSSTERM ENERGY INCLUDED IN DIHEDRAL
Info: TIMING OUTPUT STEPS    5000
Info: PRESSURE OUTPUT STEPS  500
Info: HARMONIC CONSTRAINTS ACTIVE
Info: HARMONIC CONS EXP      2
Info: HARMONIC CONS SCALING  10
Info: CONJUGATE GRADIENT MINIMIZATION ACTIVE
Info: LINE MINIMIZATION GOAL = 0.001
Info: BABY STEP SIZE = 0.01
Info: TINY STEP SIZE = 1e-06
Info: PARTICLE MESH EWALD (PME) ACTIVE
Info: PME TOLERANCE               1e-06
Info: PME EWALD COEFFICIENT       0.257952
Info: PME INTERPOLATION ORDER     4
Info: PME GRID DIMENSIONS         80 96 80
Info: PME MAXIMUM GRID SPACING    1
Info: FULL ELECTROSTATIC EVALUATION FREQUENCY      2
Info: USING VERLET I (r-RESPA) MTS SCHEME.
Info: C1 SPLITTING OF LONG RANGE ELECTROSTATICS
Info: PLACING ATOMS IN PATCHES BY HYDROGEN GROUPS
Info: RIGID BONDS TO HYDROGEN : ALL
Info:         ERROR TOLERANCE : 1e-05
Info:          MAX ITERATIONS : 100
Info: RIGID WATER USING SETTLE ALGORITHM
Info: RANDOM NUMBER SEED     1503691733
Info: USE HYDROGEN BONDS?    NO
Info: Using AMBER format force field!
Info: AMBER PARM FILE        ../build/complex.top
Info: COORDINATE PDB         ../build/complex.pdb
Info: Exclusions in PARM file will be ignored!
Info: SCNB (VDW SCALING)     2
Info: USING ARITHMETIC MEAN TO COMBINE L-J SIGMA PARAMETERS
Info: SUMMARY OF PARAMETERS:
Info: 71 BONDS
Info: 145 ANGLES
Info: 76 DIHEDRAL
Info: 0 IMPROPER
Info: 0 CROSSTERM
Info: 0 VDW
Info: 190 VDW_PAIRS
Info: 0 NBTHOLE_PAIRS
Info: STRUCTURE SUMMARY:
Info: 49394 ATOMS
Info: 49448 BONDS
Info: 8698 ANGLES
Info: 18780 DIHEDRALS
Info: 0 IMPROPERS
Info: 0 CROSSTERMS
Info: 0 EXCLUSIONS
Info: 2336 CONSTRAINTS
Info: 47058 RIGID BONDS
Info: 101124 DEGREES OF FREEDOM
Info: 17225 HYDROGEN GROUPS
Info: 4 ATOMS IN LARGEST HYDROGEN GROUP
Info: 17225 MIGRATION GROUPS
Info: 4 ATOMS IN LARGEST MIGRATION GROUP
Info: TOTAL MASS = 301478 amu
Info: TOTAL CHARGE = 1.00115e-05 e
Info: MASS DENSITY = 0.935846 g/cm^3
Info: ATOM DENSITY = 0.0923345 atoms/A^3
Info: ADDED 70656 IMPLICIT EXCLUSIONS
Info: NONBONDED TABLE R-SQUARED SPACING: 0.0625
Info: NONBONDED TABLE SIZE: 769 POINTS
Info: REMOVING COM VELOCITY 0 0 0
TCL: Minimizing for 100 steps
ETITLE: TS BOND ANGLE DIHED IMPRP ELECT VDW BOUNDARY MISC KINETIC TOTAL TEMP POTENTIAL TOTAL3 TEMPAVG PRESSURE GPRESSURE VOLUME PRESSAVG GPRESSAVG
ENERGY: 0 155.4176 1012.2698 2855.7272 0.0000 -154496.7912 207729.2052 0.0468 0.0000 0.0000 57255.8754 0.0000 57255.8754 57255.8754 0.0000 116350.2532 86546.1670 534946.2959 116350.2532 86546.1670
ENERGY: 20 304.7535 935.7910 2893.4663 0.0000 -158672.9395 17936.6600 143.9453 0.0000 0.0000 -136458.3233 0.0000 -136458.3233 -136458.3233 0.0000 16523.9394 -239.4551 534946.2959 16523.9394 -239.4551
ENERGY: 40 198.7423 799.5724 2896.9273 0.0000 -162811.4544 16417.9533 221.3029 0.0000 0.0000 -142276.9561 0.0000 -142276.9561 -142276.9561 0.0000 15011.2700 -2135.4702 534946.2959 15011.2700 -2135.4702
ENERGY: 60 130.5284 715.3440 2898.2166 0.0000 -167496.1564 15446.7541 315.2796 0.0000 0.0000 -147990.0338 0.0000 -147990.0338 -147990.0338 0.0000 13793.8839 -3799.3985 534946.2959 13793.8839 -3799.3985
ENERGY: 80 431.2748 765.6313 2904.3783 0.0000 -169937.5199 15121.1535 372.0120 0.0000 0.0000 -150343.0700 0.0000 -150343.0700 -150343.0700 0.0000 13270.3330 -4577.2423 534946.2959 13270.3330 -4577.2423
ENERGY: 100 119.3891 710.0604 2905.2589 0.0000 -171259.7182 14991.7864 387.3613 0.0000 0.0000 -152145.8621 0.0000 -152145.8621 -152145.8621 0.0000 13056.2643 -4908.1746 534946.2959 13056.2643 -4908.1746
TCL: Setting parameter constraintScaling to 5.0
TCL: Minimizing for 100 steps
ETITLE: TS BOND ANGLE DIHED IMPRP ELECT VDW BOUNDARY MISC KINETIC TOTAL TEMP POTENTIAL TOTAL3 TEMPAVG PRESSURE GPRESSURE VOLUME PRESSAVG GPRESSAVG
ENERGY: 100 119.3891 710.0604 2905.2589 0.0000 -171259.7182 14991.7864 193.6806 0.0000 0.0000 -152339.5428 0.0000 -152339.5428 -152339.5428 0.0000 13672.7705 -23021.8204 534946.2959 13672.7705 -23021.8204
ENERGY: 120 108.8891 687.5864 2912.9269 0.0000 -172865.8650 14798.2715 281.1913 0.0000 0.0000 -154076.9999 0.0000 -154076.9999 -154076.9999 0.0000 13218.2572 -4906.0119 534946.2959 13218.2572 -4906.0119
ENERGY: 140 309.5249 708.8835 2913.8027 0.0000 -174236.4752 14731.4916 326.6338 0.0000 0.0000 -155246.1387 0.0000 -155246.1387 -155246.1387 0.0000 12971.5457 -5303.1996 534946.2959 12971.5457 -5303.1996
ENERGY: 160 264.7847 682.9818 2923.1480 0.0000 -176272.6599 14757.1768 382.7899 0.0000 0.0000 -157261.7786 0.0000 -157261.7786 -157261.7786 0.0000 12741.2972 -5742.7843 534946.2959 12741.2972 -5742.7843
ENERGY: 180 269.1882 744.0881 2928.5664 0.0000 -178993.2749 15023.1578 473.1916 0.0000 0.0000 -159555.0827 0.0000 -159555.0827 -159555.0827 0.0000 12521.7186 -6224.0100 534946.2959 12521.7186 -6224.0100
ENERGY: 200 238.6008 694.1269 2941.3438 0.0000 -181554.7893 15586.7107 546.2389 0.0000 0.0000 -161547.7681 0.0000 -161547.7681 -161547.7681 0.0000 12582.6270 -6430.6862 534946.2959 12582.6270 -6430.6862
TCL: Setting parameter constraintScaling to 2.5
TCL: Minimizing for 100 steps
ETITLE: TS BOND ANGLE DIHED IMPRP ELECT VDW BOUNDARY MISC KINETIC TOTAL TEMP POTENTIAL TOTAL3 TEMPAVG PRESSURE GPRESSURE VOLUME PRESSAVG GPRESSAVG
ENERGY: 200 238.6008 694.1269 2941.3438 0.0000 -181554.7893 15586.7107 273.1194 0.0000 0.0000 -161820.8876 0.0000 -161820.8876 -161820.8876 0.0000 13229.4984 -25661.3716 534946.2959 13229.4984 -25661.3716
ENERGY: 220 246.0372 677.5974 2933.0019 0.0000 -182075.3829 15471.4828 337.6787 0.0000 0.0000 -162409.5849 0.0000 -162409.5849 -162409.5849 0.0000 12971.3862 -6096.5876 534946.2959 12971.3862 -6096.5876
ENERGY: 240 139.4231 665.8385 2928.5813 0.0000 -182462.6052 15493.8109 343.7085 0.0000 0.0000 -162891.2428 0.0000 -162891.2428 -162891.2428 0.0000 13033.9187 -6114.4847 534946.2959 13033.9187 -6114.4847
ENERGY: 260 236.2210 702.8513 2922.5654 0.0000 -183753.2074 15758.8509 379.1993 0.0000 0.0000 -163753.5193 0.0000 -163753.5193 -163753.5193 0.0000 13014.0687 -6244.9891 534946.2959 13014.0687 -6244.9891
ENERGY: 280 346.8165 724.2930 2918.0844 0.0000 -185633.2437 16308.3254 467.9995 0.0000 0.0000 -164867.7248 0.0000 -164867.7248 -164867.7248 0.0000 13145.4382 -6369.8619 534946.2959 13145.4382 -6369.8619
ENERGY: 300 196.0398 659.4115 2920.8111 0.0000 -186582.5829 16643.3677 515.5952 0.0000 0.0000 -165647.3577 0.0000 -165647.3577 -165647.3577 0.0000 13240.1327 -6362.1908 534946.2959 13240.1327 -6362.1908
TCL: Setting parameter constraintScaling to 1.25
TCL: Minimizing for 100 steps
ETITLE: TS BOND ANGLE DIHED IMPRP ELECT VDW BOUNDARY MISC KINETIC TOTAL TEMP POTENTIAL TOTAL3 TEMPAVG PRESSURE GPRESSURE VOLUME PRESSAVG GPRESSAVG
ENERGY: 300 196.0398 659.4115 2920.8111 0.0000 -186582.5829 16643.3677 257.7976 0.0000 0.0000 -165905.1553 0.0000 -165905.1553 -165905.1553 0.0000 13703.1626 -26428.9322 534946.2959 13703.1626 -26428.9322
ENERGY: 320 155.1377 660.4124 2909.1566 0.0000 -187283.0331 16815.5962 287.8379 0.0000 0.0000 -166454.8924 0.0000 -166454.8924 -166454.8924 0.0000 13710.6723 -5966.5053 534946.2959 13710.6723 -5966.5053
ENERGY: 340 160.2317 653.5822 2912.7629 0.0000 -188022.9211 17047.8467 318.4179 0.0000 0.0000 -166930.0797 0.0000 -166930.0797 -166930.0797 0.0000 13764.6540 -6001.0936 534946.2959 13764.6540 -6001.0936
ENERGY: 360 167.8421 648.4439 2907.2777 0.0000 -188953.2610 17378.7423 345.3777 0.0000 0.0000 -167505.5772 0.0000 -167505.5772 -167505.5772 0.0000 13892.4224 -5987.8644 534946.2959 13892.4224 -5987.8644
ENERGY: 380 154.0475 643.4474 2898.1406 0.0000 -189236.5401 17461.2302 347.8724 0.0000 0.0000 -167731.8021 0.0000 -167731.8021 -167731.8021 0.0000 13919.8404 -5977.0080 534946.2959 13919.8404 -5977.0080
ENERGY: 400 181.7581 676.7985 2900.3919 0.0000 -190681.9703 17941.6441 381.6851 0.0000 0.0000 -168599.6927 0.0000 -168599.6927 -168599.6927 0.0000 14115.1686 -5961.5111 534946.2959 14115.1686 -5961.5111
TCL: Setting parameter constraintScaling to 0.625
TCL: Minimizing for 100 steps
ETITLE: TS BOND ANGLE DIHED IMPRP ELECT VDW BOUNDARY MISC KINETIC TOTAL TEMP POTENTIAL TOTAL3 TEMPAVG PRESSURE GPRESSURE VOLUME PRESSAVG GPRESSAVG
ENERGY: 400 181.7581 676.7985 2900.3919 0.0000 -190681.9703 17941.6441 190.8425 0.0000 0.0000 -168790.5352 0.0000 -168790.5352 -168790.5352 0.0000 14408.8017 -26691.4756 534946.2959 14408.8017 -26691.4756
ENERGY: 420 145.4817 648.5702 2894.5898 0.0000 -190988.2566 18047.9176 202.0391 0.0000 0.0000 -169049.6582 0.0000 -169049.6582 -169049.6582 0.0000 14410.5024 -5687.4462 534946.2959 14410.5024 -5687.4462
ENERGY: 440 153.4009 671.8633 2895.0556 0.0000 -191820.5728 18381.7237 240.1867 0.0000 0.0000 -169478.3427 0.0000 -169478.3427 -169478.3427 0.0000 14504.5787 -5679.9505 534946.2959 14504.5787 -5679.9505
ENERGY: 460 197.4674 689.2075 2893.8627 0.0000 -192489.7316 18626.7406 270.2332 0.0000 0.0000 -169812.2201 0.0000 -169812.2201 -169812.2201 0.0000 14529.3518 -5717.7607 534946.2959 14529.3518 -5717.7607
ENERGY: 480 162.0100 667.9967 2890.3469 0.0000 -192661.9419 18653.5792 269.0248 0.0000 0.0000 -170018.9843 0.0000 -170018.9843 -170018.9843 0.0000 14604.6836 -5681.1234 534946.2959 14604.6836 -5681.1234
ENERGY: 500 182.2625 666.3535 2886.0464 0.0000 -193175.6491 18822.1895 270.6745 0.0000 0.0000 -170348.1227 0.0000 -170348.1227 -170348.1227 0.0000 14654.6355 -5682.2798 534946.2959 14654.6355 -5682.2798
TCL: Setting parameter constraintScaling to 0.3125
TCL: Minimizing for 100 steps
ETITLE: TS BOND ANGLE DIHED IMPRP ELECT VDW BOUNDARY MISC KINETIC TOTAL TEMP POTENTIAL TOTAL3 TEMPAVG PRESSURE GPRESSURE VOLUME PRESSAVG GPRESSAVG
ENERGY: 500 182.2625 666.3535 2886.0464 0.0000 -193175.6491 18822.1895 135.3373 0.0000 0.0000 -170483.4600 0.0000 -170483.4600 -170483.4600 0.0000 14837.2396 -26849.9198 534946.2959 14837.2396 -26849.9198
ENERGY: 520 184.6359 695.3521 2888.8809 0.0000 -193775.2400 19051.2314 155.1789 0.0000 0.0000 -170799.9608 0.0000 -170799.9608 -170799.9608 0.0000 14863.9780 -5528.2495 534946.2959 14863.9780 -5528.2495
ENERGY: 540 154.3675 656.0784 2879.1329 0.0000 -193963.6949 19115.4147 159.8026 0.0000 0.0000 -170998.8989 0.0000 -170998.8989 -170998.8989 0.0000 14960.0388 -5476.0226 534946.2959 14960.0388 -5476.0226
ENERGY: 560 175.9499 672.8800 2878.3604 0.0000 -194296.3769 19219.3651 165.4345 0.0000 0.0000 -171184.3870 0.0000 -171184.3870 -171184.3870 0.0000 14964.8247 -5489.8473 534946.2959 14964.8247 -5489.8473
ENERGY: 580 191.4740 738.1472 2887.6743 0.0000 -195252.9763 19593.4080 185.7406 0.0000 0.0000 -171656.5322 0.0000 -171656.5322 -171656.5322 0.0000 15171.9375 -5416.2561 534946.2959 15171.9375 -5416.2561
ENERGY: 600 170.6488 654.9383 2873.5836 0.0000 -196033.1241 19906.9290 203.6967 0.0000 0.0000 -172223.3277 0.0000 -172223.3277 -172223.3277 0.0000 15290.2601 -5382.5244 534946.2959 15290.2601 -5382.5244
TCL: Setting parameter constraintScaling to 0.15625
TCL: Minimizing for 100 steps
ETITLE: TS BOND ANGLE DIHED IMPRP ELECT VDW BOUNDARY MISC KINETIC TOTAL TEMP POTENTIAL TOTAL3 TEMPAVG PRESSURE GPRESSURE VOLUME PRESSAVG GPRESSAVG
ENERGY: 600 170.6488 654.9383 2873.5836 0.0000 -196033.1241 19906.9290 101.8484 0.0000 0.0000 -172325.1760 0.0000 -172325.1760 -172325.1760 0.0000 15407.1471 -26943.7105 534946.2959 15407.1471 -26943.7105
ENERGY: 620 156.1286 640.5383 2866.6019 0.0000 -196313.6176 20003.6584 107.3225 0.0000 0.0000 -172539.3679 0.0000 -172539.3679 -172539.3679 0.0000 15420.6061 -5275.0676 534946.2959 15420.6061 -5275.0676
ENERGY: 640 164.1278 654.7811 2866.8928 0.0000 -196700.0416 20148.0531 113.4022 0.0000 0.0000 -172752.7847 0.0000 -172752.7847 -172752.7847 0.0000 15483.9567 -5257.4984 534946.2959 15483.9567 -5257.4984
ENERGY: 660 161.1135 649.9098 2862.6927 0.0000 -197364.0395 20386.3043 122.5807 0.0000 0.0000 -173181.4385 0.0000 -173181.4385 -173181.4385 0.0000 15563.1607 -5246.1277 534946.2959 15563.1607 -5246.1277
ENERGY: 680 158.1293 646.6262 2856.5809 0.0000 -197650.9338 20498.5886 125.5774 0.0000 0.0000 -173365.4314 0.0000 -173365.4314 -173365.4314 0.0000 15637.4761 -5212.1177 534946.2959 15637.4761 -5212.1177
ENERGY: 700 169.9731 676.5482 2858.3538 0.0000 -198103.5074 20658.3522 132.0673 0.0000 0.0000 -173608.2128 0.0000 -173608.2128 -173608.2128 0.0000 15689.3515 -5201.9076 534946.2959 15689.3515 -5201.9076
TCL: Setting parameter constraintScaling to 0.078125
TCL: Minimizing for 100 steps
ETITLE: TS BOND ANGLE DIHED IMPRP ELECT VDW BOUNDARY MISC KINETIC TOTAL TEMP POTENTIAL TOTAL3 TEMPAVG PRESSURE GPRESSURE VOLUME PRESSAVG GPRESSAVG
ENERGY: 700 169.9731 676.5482 2858.3538 0.0000 -198103.5074 20658.3522 66.0336 0.0000 0.0000 -173674.2464 0.0000 -173674.2464 -173674.2464 0.0000 15757.6661 -27077.6855 534946.2959 15757.6661 -27077.6855
ENERGY: 720 166.8521 679.1912 2854.2102 0.0000 -198375.3949 20765.2647 68.0176 0.0000 0.0000 -173841.8591 0.0000 -173841.8591 -173841.8591 0.0000 15824.7450 -5101.1055 534946.2959 15824.7450 -5101.1055
ENERGY: 740 174.0669 649.3394 2848.3961 0.0000 -198916.9691 20959.8171 73.6349 0.0000 0.0000 -174211.7148 0.0000 -174211.7148 -174211.7148 0.0000 15879.1192 -5105.1571 534946.2959 15879.1192 -5105.1571
ENERGY: 760 164.1516 658.3531 2847.1866 0.0000 -199375.0701 21121.2888 77.4519 0.0000 0.0000 -174506.6380 0.0000 -174506.6380 -174506.6380 0.0000 15970.1429 -5075.0596 534946.2959 15970.1429 -5075.0596
ENERGY: 780 182.1268 685.9365 2846.0238 0.0000 -199603.2593 21222.6256 78.5173 0.0000 0.0000 -174588.0292 0.0000 -174588.0292 -174588.0292 0.0000 16047.1629 -5037.3148 534946.2959 16047.1629 -5037.3148
ENERGY: 800 208.2455 666.8834 2837.4521 0.0000 -200124.8493 21428.1092 83.0005 0.0000 0.0000 -174901.1587 0.0000 -174901.1587 -174901.1587 0.0000 16118.3192 -5016.3263 534946.2959 16118.3192 -5016.3263
TCL: Setting parameter constraintScaling to 0.0390625
TCL: Minimizing for 100 steps
ETITLE: TS BOND ANGLE DIHED IMPRP ELECT VDW BOUNDARY MISC KINETIC TOTAL TEMP POTENTIAL TOTAL3 TEMPAVG PRESSURE GPRESSURE VOLUME PRESSAVG GPRESSAVG
ENERGY: 800 208.2455 666.8834 2837.4521 0.0000 -200124.8493 21428.1092 41.5003 0.0000 0.0000 -174942.6590 0.0000 -174942.6590 -174942.6590 0.0000 16157.7016 -27162.2851 534946.2959 16157.7016 -27162.2851
ENERGY: 820 170.0763 661.4085 2841.2848 0.0000 -200299.3074 21460.2361 42.5751 0.0000 0.0000 -175123.7265 0.0000 -175123.7265 -175123.7265 0.0000 16167.1317 -4985.3516 534946.2959 16167.1317 -4985.3516
ENERGY: 840 172.8696 668.1159 2836.8613 0.0000 -200769.5157 21635.6752 44.9307 0.0000 0.0000 -175411.0630 0.0000 -175411.0630 -175411.0630 0.0000 16260.2906 -4952.2268 534946.2959 16260.2906 -4952.2268
ENERGY: 860 213.7099 683.2879 2831.9426 0.0000 -201026.3096 21774.2315 46.1739 0.0000 0.0000 -175476.9639 0.0000 -175476.9639 -175476.9639 0.0000 16326.6125 -4921.9693 534946.2959 16326.6125 -4921.9693
ENERGY: 880 176.0782 664.6135 2830.1293 0.0000 -201368.6778 21891.1674 47.6892 0.0000 0.0000 -175759.0001 0.0000 -175759.0001 -175759.0001 0.0000 16383.5866 -4897.8539 534946.2959 16383.5866 -4897.8539
ENERGY: 900 198.0238 672.1575 2828.8658 0.0000 -202066.8527 22157.4096 51.0329 0.0000 0.0000 -176159.3631 0.0000 -176159.3631 -176159.3631 0.0000 16520.0853 -4850.7297 534946.2959 16520.0853 -4850.7297
TCL: Setting parameter constraintScaling to 0.01953125
TCL: Minimizing for 100 steps
ETITLE: TS BOND ANGLE DIHED IMPRP ELECT VDW BOUNDARY MISC KINETIC TOTAL TEMP POTENTIAL TOTAL3 TEMPAVG PRESSURE GPRESSURE VOLUME PRESSAVG GPRESSAVG
ENERGY: 900 198.0238 672.1575 2828.8658 0.0000 -202066.8527 22157.4096 25.5164 0.0000 0.0000 -176184.8796 0.0000 -176184.8796 -176184.8796 0.0000 16542.4844 -27248.6953 534946.2959 16542.4844 -27248.6953
ENERGY: 920 164.6770 658.7097 2827.2125 0.0000 -202197.0607 22221.0368 25.8316 0.0000 0.0000 -176299.5931 0.0000 -176299.5931 -176299.5931 0.0000 16579.6011 -4800.7685 534946.2959 16579.6011 -4800.7685
ENERGY: 940 402.1819 757.0113 2824.6911 0.0000 -202710.0714 22438.6818 27.4284 0.0000 0.0000 -176260.0769 0.0000 -176260.0769 -176260.0769 0.0000 16611.6032 -4815.6259 534946.2959 16611.6032 -4815.6259
ENERGY: 960 182.0602 668.2033 2822.1292 0.0000 -203034.4180 22547.6738 28.2339 0.0000 0.0000 -176786.1175 0.0000 -176786.1175 -176786.1175 0.0000 16725.4313 -4752.7812 534946.2959 16725.4313 -4752.7812
ENERGY: 980 165.8225 656.7427 2820.3796 0.0000 -203111.2936 22585.3425 28.3740 0.0000 0.0000 -176854.6323 0.0000 -176854.6323 -176854.6323 0.0000 16748.3730 -4735.8754 534946.2959 16748.3730 -4735.8754
ENERGY: 1000 178.5600 684.6972 2817.7048 0.0000 -203685.3469 22857.4925 29.6820 0.0000 0.0000 -177117.2105 0.0000 -177117.2105 -177117.2105 0.0000 16916.3196 -4640.6025 534946.2959 16916.3196 -4640.6025
TCL: Setting parameter constraintScaling to 0
TCL: Minimizing for 5000 steps
ETITLE: TS BOND ANGLE DIHED IMPRP ELECT VDW BOUNDARY MISC KINETIC TOTAL TEMP POTENTIAL TOTAL3 TEMPAVG PRESSURE GPRESSURE VOLUME PRESSAVG GPRESSAVG
ENERGY: 1000 178.5600 684.6972 2817.7048 0.0000 -203685.3469 22857.4925 0.0000 0.0000 0.0000 -177146.8925 0.0000 -177146.8925 -177146.8925 0.0000 16941.1188 -27230.5975 534946.2959 16941.1188 -27230.5975
ENERGY: 2000 178.5603 668.3235 2801.3781 0.0000 -213913.5853 27418.8326 0.0000 0.0000 0.0000 -182846.4908 0.0000 -182846.4908 -182846.4908 0.0000 19338.9726 -3371.8211 534946.2959 19338.9726 -3371.8211
ENERGY: 3000 169.3397 671.2467 2793.1869 0.0000 -217407.4241 28849.2173 0.0000 0.0000 0.0000 -184924.4334 0.0000 -184924.4334 -184924.4334 0.0000 20087.3347 -2974.2385 534946.2959 20087.3347 -2974.2385
ENERGY: 4000 166.7267 669.5049 2786.3290 0.0000 -218644.5292 29362.1526 0.0000 0.0000 0.0000 -185659.8159 0.0000 -185659.8159 -185659.8159 0.0000 20354.9731 -2826.7751 534946.2959 20354.9731 -2826.7751
ENERGY: 5000 206.3976 674.6727 2780.6006 0.0000 -219354.0037 29666.2084 0.0000 0.0000 0.0000 -186026.1244 0.0000 -186026.1244 -186026.1244 0.0000 20506.5373 -2751.1856 534946.2959 20506.5373 -2751.1856
ENERGY: 6000 167.1403 668.5636 2778.4766 0.0000 -219675.3861 29746.7491 0.0000 0.0000 0.0000 -186314.4566 0.0000 -186314.4566 -186314.4566 0.0000 20544.7725 -2751.3564 534946.2959 20544.7725 -2751.3564
