Info: SIMULATION PARAMETERS:
Info: TIMESTEP               1
Info: NUMBER OF STEPS        0
Info: STEPS PER CYCLE        10
Info: PERIODIC CELL BASIS 1  72.449 0 0
Info: PERIODIC CELL BASIS 2  0 93.247 0
Info: PERIODIC CELL BASIS 3  0 0 79.185
Info: PERIODIC CELL CENTER   -0.248 -0.156 -0.047
Info: WRAPPING WATERS AROUND PERIODIC BOUNDARIES ON OUTPUT.
Info: WRAPPING ALL CLUSTERS AROUND PERIODIC BOUNDARIES ON OUTPUT.
Info: FIRST LDB TIMESTEP     50
Info: LAST LDB TIMESTEP     -1
Info: HOM BACKGROUND SCALING 1
Info: PME BACKGROUND SCALING 1
Info: MIN ATOMS PER PATCH    40
Info: VELOCITY FILE          ../replicas/rep114/equilibration/eq1.vel
Info: CENTER OF MASS MOVING INITIALLY? NO
Info: DIELECTRIC             1
Info: EXCLUDE                SCALED ONE-FOUR
Info: 1-4 ELECTROSTATICS SCALED BY 0.833333
Info: MODIFIED 1-4 VDW PARAMETERS WILL BE USED
Info: DCD FILENAME           ../replicas/rep114/equilibration/eq2.dcd
Info: DCD FREQUENCY          5000
Info: DCD FIRST STEP         5000
Info: DCD FILE WILL CONTAIN UNIT CELL DATA
Info: XST FILENAME           ../replicas/rep114/equilibration/eq2.xst
Info: XST FREQUENCY          5000
Info: NO VELOCITY DCD OUTPUT
Info: NO FORCE DCD OUTPUT
Info: OUTPUT FILENAME        ../replicas/rep114/equilibration/eq2
Info: RESTART FILENAME       ../replicas/rep114/equilibration/eq2.restart
Info: RESTART FREQUENCY      5000
Info: BINARY RESTART FILES WILL BE USED
Info: SWITCHING ACTIVE
Info: SWITCHING ON           10
Info: SWITCHING OFF          12
Info: PAIRLIST DISTANCE      13.5
Info: PAIRLIST SHRINK RATE   0.01
Info: PAIRLIST GROW RATE     0.01
Info: PAIRLIST TRIGGER       0.3
Info: PAIRLISTS PER CYCLE    2
Info: PAIRLISTS ENABLED
Info: MARGIN                 0.48
Info: HYDROGEN GROUP CUTOFF  2.5
Info: PATCH DIMENSION        16.48
Info: ENERGY OUTPUT STEPS    500
Info: CROSSTERM ENERGY INCLUDED IN DIHEDRAL
Info: TIMING OUTPUT STEPS    5000
Info: PRESSURE OUTPUT STEPS  500
Info: HARMONIC CONSTRAINTS ACTIVE
Info: HARMONIC CONS EXP      2
Info: HARMONIC CONS SCALING  10
Info: LANGEVIN DYNAMICS ACTIVE
Info: LANGEVIN TEMPERATURE   300
Info: LANGEVIN USING BBK INTEGRATOR
Info: LANGEVIN DAMPING COEFFICIENT IS 5 INVERSE PS
Info: LANGEVIN DYNAMICS NOT APPLIED TO HYDROGENS
Info: BERENDSEN PRESSURE COUPLING ACTIVE
Info:     TARGET PRESSURE IS 1 BAR
Info:     COMPRESSIBILITY ESTIMATE IS 4.57e-05 BAR^(-1)
Info:     RELAXATION TIME IS 100 FS
Info:     APPLIED EVERY 2 STEPS
Info:     PRESSURE CONTROL IS GROUP-BASED
Info:       CELL FLUCTUATION IS ISOTROPIC
Info: PARTICLE MESH EWALD (PME) ACTIVE
Info: PME TOLERANCE               1e-06
Info: PME EWALD COEFFICIENT       0.257952
Info: PME INTERPOLATION ORDER     4
Info: PME GRID DIMENSIONS         80 96 80
Info: PME MAXIMUM GRID SPACING    1
Info: FULL ELECTROSTATIC EVALUATION FREQUENCY      2
Info: USING VERLET I (r-RESPA) MTS SCHEME.
Info: C1 SPLITTING OF LONG RANGE ELECTROSTATICS
Info: PLACING ATOMS IN PATCHES BY HYDROGEN GROUPS
Info: RIGID BONDS TO HYDROGEN : WATER
Info:         ERROR TOLERANCE : 1e-05
Info:          MAX ITERATIONS : 100
Info: RIGID WATER USING SETTLE ALGORITHM
Info: RANDOM NUMBER SEED     1503700953
Info: USE HYDROGEN BONDS?    NO
Info: Using AMBER format force field!
Info: AMBER PARM FILE        ../build/complex.top
Info: COORDINATE PDB         ../replicas/rep114/equilibration/eq1.coor
Info: Exclusions in PARM file will be ignored!
Info: SCNB (VDW SCALING)     2
Info: USING ARITHMETIC MEAN TO COMBINE L-J SIGMA PARAMETERS
Info: SUMMARY OF PARAMETERS:
Info: 71 BONDS
Info: 145 ANGLES
Info: 76 DIHEDRAL
Info: 0 IMPROPER
Info: 0 CROSSTERM
Info: 0 VDW
Info: 190 VDW_PAIRS
Info: 0 NBTHOLE_PAIRS
Info: STRUCTURE SUMMARY:
Info: 49394 ATOMS
Info: 49448 BONDS
Info: 8698 ANGLES
Info: 18780 DIHEDRALS
Info: 0 IMPROPERS
Info: 0 CROSSTERMS
Info: 0 EXCLUSIONS
Info: 2336 CONSTRAINTS
Info: 44667 RIGID BONDS
Info: 103515 DEGREES OF FREEDOM
Info: 17225 HYDROGEN GROUPS
Info: 4 ATOMS IN LARGEST HYDROGEN GROUP
Info: 17225 MIGRATION GROUPS
Info: 4 ATOMS IN LARGEST MIGRATION GROUP
Info: TOTAL MASS = 301478 amu
Info: TOTAL CHARGE = 1.00115e-05 e
Info: MASS DENSITY = 0.935846 g/cm^3
Info: ATOM DENSITY = 0.0923345 atoms/A^3
Info: ADDED 70656 IMPLICIT EXCLUSIONS
Info: NONBONDED TABLE R-SQUARED SPACING: 0.0625
Info: NONBONDED TABLE SIZE: 769 POINTS
Info: REMOVING COM VELOCITY -0.00117571 0.00849057 0.00831715
TCL: Running for 5000 steps
ETITLE: TS BOND ANGLE DIHED IMPRP ELECT VDW BOUNDARY MISC KINETIC TOTAL TEMP POTENTIAL TOTAL3 TEMPAVG PRESSURE GPRESSURE VOLUME PRESSAVG GPRESSAVG
ENERGY: 0 392.6568 1181.2465 2928.4955 0.0000 -212803.5100 29585.2300 0.0000 0.0000 10013.1618 -168702.7194 97.3550 -178715.8812 -168693.1894 97.3550 -2383.3187 -2483.9916 534946.2959 -2383.3187 -2483.9916
ENERGY: 1000 1254.7481 1978.3947 3114.5336 0.0000 -193699.6406 26641.2678 786.3280 0.0000 24203.7281 -135720.6404 235.3257 -159924.3685 -135689.9299 218.7123 4.4704 -9.6725 522223.9574 -14.5013 -14.7536
ENERGY: 2000 1453.0746 2120.1150 3134.4703 0.0000 -183958.3858 23239.0282 784.0027 0.0000 27814.3146 -125413.3805 270.4304 -153227.6951 -125380.4877 265.0006 -83.7491 -31.2822 516125.6991 -22.8041 -22.8880
ENERGY: 3000 1558.6841 2190.5338 3159.2622 0.0000 -179022.7684 21537.1683 790.0212 0.0000 29354.0172 -120433.0817 285.4004 -149787.0989 -120395.8654 284.7466 -43.7712 4.5992 509882.3373 -21.8984 -21.8240
ENERGY: 4000 1552.8734 2237.4747 3142.4147 0.0000 -176911.1539 20624.7859 818.7139 0.0000 30423.5941 -118111.2972 295.7996 -148534.8913 -118065.0127 293.6618 63.0058 2.0783 508964.8792 -7.3511 -7.9940
ENERGY: 5000 1556.0564 2266.2269 3151.4937 0.0000 -176210.0934 20473.5442 819.5334 0.0000 30604.9955 -117338.2432 297.5633 -147943.2388 -117281.6173 297.3921 -46.1738 32.2067 506130.5862 -1.3948 -1.4484
TCL: Setting parameter constraintScaling to 5.0
TCL: Running for 5000 steps
ETITLE: TS BOND ANGLE DIHED IMPRP ELECT VDW BOUNDARY MISC KINETIC TOTAL TEMP POTENTIAL TOTAL3 TEMPAVG PRESSURE GPRESSURE VOLUME PRESSAVG GPRESSAVG
ENERGY: 5000 1556.0564 2266.2269 3151.4937 0.0000 -176210.0934 20473.5442 409.7667 0.0000 30602.9601 -117750.0453 297.5435 -148353.0055 -117705.4647 297.5435 -66.0586 6.6234 506130.5862 -66.0586 6.6234
ENERGY: 6000 1580.0087 2323.5284 3144.7759 0.0000 -175748.6528 20394.9337 627.0136 0.0000 30464.6277 -117213.7649 296.1986 -147678.3926 -117167.0164 297.7099 -62.1483 -18.7509 504108.2498 -14.4633 -14.2154
ENERGY: 7000 1622.4458 2326.0795 3180.0719 0.0000 -175581.9908 20327.3438 644.0306 0.0000 30736.4148 -116745.6045 298.8411 -147482.0193 -116697.0704 299.4721 -112.2746 -31.2726 503193.0879 -10.1955 -9.8563
ENERGY: 8000 1658.6389 2281.3153 3168.6494 0.0000 -175369.4589 20287.3933 642.4918 0.0000 30784.9728 -116545.9975 299.3132 -147330.9703 -116498.1891 299.1302 -111.4288 3.2916 501104.9905 -8.7549 -9.5436
ENERGY: 9000 1615.3000 2258.4141 3156.3909 0.0000 -175535.4276 20405.3323 617.0515 0.0000 31058.3838 -116424.5550 301.9715 -147482.9388 -116365.2141 300.4248 48.7947 5.4510 500173.6459 0.0524 -0.1157
ENERGY: 10000 1613.7956 2349.6379 3195.5578 0.0000 -175187.8265 19888.8839 646.3338 0.0000 30931.6473 -116561.9704 300.7393 -147493.6176 -116523.6495 301.1309 16.3856 0.8516 502496.4911 22.8010 22.5872
TCL: Setting parameter constraintScaling to 2.5
TCL: Running for 5000 steps
ETITLE: TS BOND ANGLE DIHED IMPRP ELECT VDW BOUNDARY MISC KINETIC TOTAL TEMP POTENTIAL TOTAL3 TEMPAVG PRESSURE GPRESSURE VOLUME PRESSAVG GPRESSAVG
ENERGY: 10000 1613.7956 2349.6379 3195.5578 0.0000 -175187.8265 19888.8839 323.1669 0.0000 30929.5843 -116887.2003 300.7192 -147816.7845 -116842.8837 300.7192 -41.9208 -57.3414 502496.4911 -41.9208 -57.3414
ENERGY: 11000 1616.2621 2409.2892 3178.5683 0.0000 -175313.9239 19928.6619 520.3920 0.0000 31068.9606 -116591.7898 302.0743 -147660.7504 -116547.4678 300.6483 -95.1435 -39.0697 500987.7074 -3.7924 -4.0655
ENERGY: 12000 1640.8970 2320.6947 3198.2603 0.0000 -175870.7751 20336.3312 521.0995 0.0000 30764.2941 -117089.1984 299.1121 -147853.4925 -117036.4078 298.5832 11.4269 -0.0240 500686.1924 11.2831 10.8961
ENERGY: 13000 1601.4251 2354.1334 3175.7477 0.0000 -175393.8556 19909.2028 484.4073 0.0000 30693.4927 -117175.4465 298.4238 -147868.9393 -117124.4346 299.7416 -102.9454 15.9457 500942.4373 4.9625 4.5639
ENERGY: 14000 1645.3874 2362.6979 3161.8304 0.0000 -175765.1716 20283.0164 511.6197 0.0000 30833.2299 -116967.3899 299.7824 -147800.6197 -116925.6752 299.9116 -71.5474 5.1587 502210.5008 10.0876 10.0281
ENERGY: 15000 1633.8776 2322.2527 3153.2993 0.0000 -175642.7712 19967.8212 521.7419 0.0000 30815.7317 -117228.0469 299.6123 -148043.7786 -117175.7201 299.5316 -89.2850 -23.9178 501431.1833 3.7323 3.4576
TCL: Setting parameter constraintScaling to 1.25
TCL: Running for 5000 steps
ETITLE: TS BOND ANGLE DIHED IMPRP ELECT VDW BOUNDARY MISC KINETIC TOTAL TEMP POTENTIAL TOTAL3 TEMPAVG PRESSURE GPRESSURE VOLUME PRESSAVG GPRESSAVG
ENERGY: 15000 1633.8776 2322.2527 3153.2993 0.0000 -175642.7712 19967.8212 260.8709 0.0000 30813.6789 -117490.9707 299.5923 -148304.6496 -117447.4297 299.5923 -152.8255 -93.7014 501431.1833 -152.8255 -93.7014
ENERGY: 16000 1585.3097 2405.6337 3198.8093 0.0000 -175450.4095 19907.0915 380.1436 0.0000 30871.1110 -117102.3107 300.1507 -147973.4217 -117063.8849 299.3799 -123.5883 -1.2409 499396.9612 -1.3655 -1.6109
ENERGY: 17000 1661.1369 2393.3409 3184.0803 0.0000 -175859.2262 20218.9799 394.5169 0.0000 30873.6400 -117133.5312 300.1753 -148007.1712 -117089.8564 299.6497 -3.3076 35.6706 499682.9152 1.0008 1.1805
ENERGY: 18000 1608.9841 2417.7456 3197.9084 0.0000 -175467.0072 19904.9648 412.2511 0.0000 30671.8086 -117253.3446 298.2129 -147925.1532 -117218.2672 299.6822 -95.0838 -2.2344 498479.3903 -16.3512 -16.1758
ENERGY: 19000 1588.9741 2365.7192 3201.6215 0.0000 -175447.2150 19859.0673 416.5304 0.0000 30712.7307 -117302.5718 298.6108 -148015.3025 -117258.4305 299.3787 -18.2679 44.0414 498022.4584 3.4693 3.4763
ENERGY: 20000 1634.0283 2403.7010 3166.2822 0.0000 -175421.7484 19949.7824 386.8305 0.0000 30607.6052 -117273.5187 297.5887 -147881.1239 -117223.8423 298.4678 -15.0543 35.4868 498996.0213 7.0913 6.7709
TCL: Setting parameter constraintScaling to 0.625
TCL: Running for 5000 steps
ETITLE: TS BOND ANGLE DIHED IMPRP ELECT VDW BOUNDARY MISC KINETIC TOTAL TEMP POTENTIAL TOTAL3 TEMPAVG PRESSURE GPRESSURE VOLUME PRESSAVG GPRESSAVG
ENERGY: 20000 1634.0283 2403.7010 3166.2822 0.0000 -175421.7484 19949.7824 193.4153 0.0000 30605.5605 -117468.9787 297.5688 -148074.5392 -117426.8460 297.5688 -45.5246 -0.1000 498996.0213 -45.5246 -0.1000
ENERGY: 21000 1590.0758 2373.0797 3184.1492 0.0000 -175722.5055 19887.8693 317.4602 0.0000 30690.0156 -117679.8557 298.3900 -148369.8713 -117632.3633 299.0453 -56.2845 -6.2854 498932.7501 -1.5033 -0.8490
ENERGY: 22000 1611.6151 2318.0225 3180.8900 0.0000 -175674.6850 19900.4005 317.5772 0.0000 30695.1569 -117651.0229 298.4399 -148346.1798 -117600.3303 299.1093 -175.0039 -158.5611 497730.7030 0.3296 0.5160
ENERGY: 23000 1585.9813 2356.6175 3186.5611 0.0000 -175800.0326 20004.5948 316.0642 0.0000 30732.4668 -117617.7470 298.8027 -148350.2137 -117583.5780 299.9682 52.3079 62.6665 498566.2770 7.9494 8.8441
ENERGY: 24000 1617.7102 2382.8444 3208.9036 0.0000 -175425.3041 19809.3843 318.1616 0.0000 30905.3323 -117182.9676 300.4834 -148088.2999 -117127.1344 299.5023 -79.9888 -53.6843 498933.6220 -3.1226 -2.7967
ENERGY: 25000 1658.2662 2449.6791 3184.3682 0.0000 -175750.3472 20027.4761 297.5005 0.0000 30670.2876 -117462.7696 298.1982 -148133.0572 -117417.7019 300.0875 -67.4843 94.1457 498604.1218 -6.0616 -5.5712
TCL: Setting parameter constraintScaling to 0.3125
TCL: Running for 5000 steps
ETITLE: TS BOND ANGLE DIHED IMPRP ELECT VDW BOUNDARY MISC KINETIC TOTAL TEMP POTENTIAL TOTAL3 TEMPAVG PRESSURE GPRESSURE VOLUME PRESSAVG GPRESSAVG
ENERGY: 25000 1658.2662 2449.6791 3184.3682 0.0000 -175750.3472 20027.4761 148.7502 0.0000 30668.2748 -117613.5326 298.1786 -148281.8075 -117571.8568 298.1786 -139.6154 21.9994 498604.1218 -139.6154 21.9994
ENERGY: 26000 1676.9337 2335.1137 3204.6187 0.0000 -176079.4980 20101.6850 249.2679 0.0000 30861.6984 -117650.1807 300.0592 -148511.8790 -117606.7924 298.6422 68.1210 59.4529 498448.7526 1.4305 1.1721
ENERGY: 27000 1616.5227 2417.3112 3208.5094 0.0000 -176145.7971 20234.5301 251.9136 0.0000 30696.5949 -117720.4153 298.4539 -148417.0102 -117677.6178 298.6149 -3.8258 18.9020 499635.2039 2.5307 2.1062
ENERGY: 28000 1639.3618 2365.3118 3256.5867 0.0000 -176139.7346 20044.0180 251.0525 0.0000 30668.5206 -117914.8833 298.1810 -148583.4039 -117864.9066 297.3130 -145.1880 -92.8111 498688.4622 8.3487 7.9920
ENERGY: 29000 1599.9422 2421.9236 3184.4997 0.0000 -176061.5781 20103.6246 248.5574 0.0000 30716.2321 -117786.7984 298.6449 -148503.0305 -117740.4517 297.6974 -112.0544 -73.2257 498165.0065 -8.4355 -8.1906
ENERGY: 30000 1656.2450 2453.7806 3196.8587 0.0000 -176219.0171 20225.0477 259.6067 0.0000 30824.4302 -117603.0482 299.6968 -148427.4785 -117560.1385 298.9436 20.9052 91.4940 498239.7117 -8.8737 -9.0376
TCL: Setting parameter constraintScaling to 0.15625
TCL: Running for 5000 steps
ETITLE: TS BOND ANGLE DIHED IMPRP ELECT VDW BOUNDARY MISC KINETIC TOTAL TEMP POTENTIAL TOTAL3 TEMPAVG PRESSURE GPRESSURE VOLUME PRESSAVG GPRESSAVG
ENERGY: 30000 1656.2450 2453.7806 3196.8587 0.0000 -176219.0171 20225.0477 129.8033 0.0000 30822.3221 -117734.9597 299.6763 -148557.2818 -117694.6024 299.6763 22.0989 85.6594 498239.7117 22.0989 85.6594
ENERGY: 31000 1645.7102 2417.4389 3231.3973 0.0000 -175999.8147 20022.3079 192.7250 0.0000 30525.3086 -117964.9267 296.7886 -148490.2353 -117922.3706 298.1158 -4.0228 27.8990 497283.0599 -4.3231 -5.0213
ENERGY: 32000 1618.7347 2407.7078 3193.2537 0.0000 -176191.1679 20184.3746 199.0061 0.0000 31071.2358 -117516.8553 302.0965 -148588.0911 -117465.0891 300.9099 -99.6542 -9.5714 498535.6131 11.1408 11.2522
ENERGY: 33000 1610.0864 2407.0590 3219.8675 0.0000 -175796.2691 20204.6380 205.4483 0.0000 30856.9581 -117292.2117 300.0131 -148149.1699 -117243.5984 300.2838 25.1203 33.6217 498299.7572 6.9114 6.5105
ENERGY: 34000 1655.5405 2358.6355 3173.9285 0.0000 -175616.4903 20179.1175 204.8602 0.0000 30849.0316 -117195.3765 299.9360 -148044.4081 -117152.7123 300.3765 24.5380 55.2924 497863.9933 -8.9863 -8.7584
ENERGY: 35000 1591.4680 2413.9911 3178.9806 0.0000 -175652.6167 19921.0273 214.4770 0.0000 30948.8960 -117383.7766 300.9070 -148332.6726 -117336.6592 299.4756 -0.6710 -35.4951 497721.7324 3.0016 3.1751
TCL: Setting parameter constraintScaling to 0.078125
TCL: Running for 5000 steps
ETITLE: TS BOND ANGLE DIHED IMPRP ELECT VDW BOUNDARY MISC KINETIC TOTAL TEMP POTENTIAL TOTAL3 TEMPAVG PRESSURE GPRESSURE VOLUME PRESSAVG GPRESSAVG
ENERGY: 35000 1591.4680 2413.9911 3178.9806 0.0000 -175652.6167 19921.0273 107.2385 0.0000 30946.8338 -117493.0773 300.8869 -148439.9111 -117451.9670 300.8869 -12.0385 -43.6677 497721.7324 -12.0385 -43.6677
ENERGY: 36000 1621.4795 2463.2344 3212.8888 0.0000 -176024.0174 20165.0100 155.9131 0.0000 30743.0858 -117662.4058 298.9059 -148405.4916 -117630.2855 298.7089 -97.8935 24.0726 497415.5785 3.9140 4.1543
ENERGY: 37000 1723.3188 2419.7355 3209.8675 0.0000 -175987.9497 20253.4225 157.2196 0.0000 31028.7418 -117195.6441 301.6833 -148224.3859 -117154.0003 300.8857 -80.7906 -49.7637 498552.0471 12.8317 12.7207
ENERGY: 38000 1628.8233 2388.6843 3199.0096 0.0000 -175945.0216 20040.5267 175.4800 0.0000 30954.6958 -117557.8018 300.9634 -148512.4976 -117504.1946 300.6329 -161.4603 -122.6461 497583.9394 -2.1356 -2.5440
ENERGY: 39000 1640.2260 2385.2909 3197.5439 0.0000 -175669.9013 20138.9232 176.7741 0.0000 30726.2664 -117404.8768 298.7424 -148131.1432 -117362.7369 300.0577 -109.9872 -44.8076 499303.9834 21.2696 21.4500
ENERGY: 40000 1601.8317 2430.3603 3171.6234 0.0000 -175776.3113 20067.3195 178.4031 0.0000 30940.3965 -117386.3768 300.8243 -148326.7733 -117334.9457 300.0471 29.4614 84.8661 498232.4938 -0.9615 -0.7741
TCL: Setting parameter constraintScaling to 0.0390625
TCL: Running for 5000 steps
ETITLE: TS BOND ANGLE DIHED IMPRP ELECT VDW BOUNDARY MISC KINETIC TOTAL TEMP POTENTIAL TOTAL3 TEMPAVG PRESSURE GPRESSURE VOLUME PRESSAVG GPRESSAVG
ENERGY: 40000 1601.8317 2430.3603 3171.6234 0.0000 -175776.3113 20067.3195 89.2015 0.0000 30938.3179 -117477.6569 300.8041 -148415.9748 -117433.4252 300.8041 8.2197 65.5384 498232.4938 8.2197 65.5384
ENERGY: 41000 1694.6227 2371.0142 3231.8984 0.0000 -176136.1636 20049.1095 117.7896 0.0000 31084.5915 -117587.1377 302.2263 -148671.7292 -117541.1961 300.4537 37.0581 -10.7239 495759.5462 -7.5472 -7.3665
ENERGY: 42000 1670.5824 2343.6659 3191.9395 0.0000 -176034.9679 20140.9110 124.3375 0.0000 30858.7917 -117704.7399 300.0309 -148563.5316 -117653.8646 300.2458 -15.1004 -46.3663 497339.2533 3.7964 4.0207
ENERGY: 43000 1624.3712 2389.1421 3178.9331 0.0000 -176231.8539 20264.7857 123.5109 0.0000 30623.3419 -118027.7689 297.7417 -148651.1108 -117983.6443 298.7810 14.8358 -2.6329 497242.5429 13.3877 13.3078
ENERGY: 44000 1639.3134 2363.5321 3188.6958 0.0000 -176010.5022 20100.7677 119.2625 0.0000 30772.5434 -117826.3874 299.1924 -148598.9308 -117782.4795 299.3980 1.4615 14.1590 496261.0767 -4.1826 -4.0028
ENERGY: 45000 1672.5995 2396.3362 3171.6692 0.0000 -175829.2275 20085.5672 127.3376 0.0000 30992.3140 -117383.4037 301.3291 -148375.7177 -117340.5254 300.6808 94.8406 120.4234 497360.3357 7.2466 6.8259
TCL: Setting parameter constraintScaling to 0.01953125
TCL: Running for 5000 steps
ETITLE: TS BOND ANGLE DIHED IMPRP ELECT VDW BOUNDARY MISC KINETIC TOTAL TEMP POTENTIAL TOTAL3 TEMPAVG PRESSURE GPRESSURE VOLUME PRESSAVG GPRESSAVG
ENERGY: 45000 1672.5995 2396.3362 3171.6692 0.0000 -175829.2275 20085.5672 63.6688 0.0000 30990.2676 -117449.1189 301.3092 -148439.3865 -117402.8480 301.3092 79.5443 107.2904 497360.3357 79.5443 107.2904
ENERGY: 46000 1666.6055 2357.3581 3192.5362 0.0000 -175729.7259 20025.0862 82.7741 0.0000 30563.6898 -117841.6762 297.1617 -148405.3660 -117786.3107 299.3646 82.5572 53.2046 495828.7442 -8.4898 -8.5080
ENERGY: 47000 1629.8778 2411.4041 3203.8686 0.0000 -176009.8619 20133.0066 88.1007 0.0000 30678.7225 -117864.8816 298.2802 -148543.6041 -117823.9824 300.1604 -9.9365 20.4474 497162.3235 -3.1443 -3.7472
ENERGY: 48000 1626.5966 2409.0437 3185.1508 0.0000 -175845.8411 20034.1609 86.4428 0.0000 30533.9650 -117970.4814 296.8727 -148504.4464 -117932.3277 299.1415 -8.3997 -14.6647 497627.1247 -0.5589 -0.1141
ENERGY: 49000 1584.6473 2413.5690 3211.8939 0.0000 -175511.7304 19875.5127 88.3249 0.0000 31079.3228 -117258.4599 302.1751 -148337.7826 -117217.1031 300.3323 -112.2591 -46.0458 498561.1959 11.3092 11.0867
ENERGY: 50000 1605.9133 2395.7134 3207.0315 0.0000 -175944.6839 20061.9799 96.3594 0.0000 30795.6883 -117781.9980 299.4174 -148577.6863 -117738.4862 300.1716 4.6501 -43.5147 497413.2707 -5.4980 -5.6955
TCL: Setting parameter constraintScaling to 0
TCL: Running for 5000 steps
ETITLE: TS BOND ANGLE DIHED IMPRP ELECT VDW BOUNDARY MISC KINETIC TOTAL TEMP POTENTIAL TOTAL3 TEMPAVG PRESSURE GPRESSURE VOLUME PRESSAVG GPRESSAVG
ENERGY: 50000 1605.9133 2395.7134 3207.0315 0.0000 -175944.6839 20061.9799 0.0000 0.0000 30793.6340 -117880.4118 299.3974 -148674.0457 -117838.9604 299.3974 -19.5283 -71.6826 497413.2707 -19.5283 -71.6826
ENERGY: 51000 1646.5288 2449.0035 3196.1810 0.0000 -176309.2874 20215.8853 0.0000 0.0000 31016.3623 -117785.3265 301.5629 -148801.6888 -117737.7673 299.5238 -89.9240 -12.1563 496344.1914 3.8475 3.0213
ENERGY: 52000 1656.3018 2431.8934 3180.5444 0.0000 -176003.6261 19988.5287 0.0000 0.0000 30730.3602 -118015.9976 298.7822 -148746.3578 -117961.2087 299.2053 -67.1542 -1.0692 494867.3561 4.0514 3.8258
ENERGY: 53000 1689.7048 2417.2233 3192.2842 0.0000 -175880.4407 19973.9347 0.0000 0.0000 30942.1925 -117665.1012 300.8418 -148607.2937 -117614.3784 300.2632 65.2101 -63.7033 495541.3478 3.1018 2.4274
ENERGY: 54000 1663.2503 2401.9746 3184.4535 0.0000 -175843.5662 19939.1105 0.0000 0.0000 31108.3068 -117546.4704 302.4569 -148654.7772 -117501.8340 299.7114 -35.1794 54.0660 496355.1288 -0.2112 -0.1601
ENERGY: 55000 1634.6399 2436.0856 3179.8655 0.0000 -175926.4099 20113.4468 0.0000 0.0000 30833.6989 -117728.6732 299.7870 -148562.3721 -117676.9874 300.3206 1.5765 6.4457 496174.5523 1.4714 1.7612
