Info: SIMULATION PARAMETERS:
Info: TIMESTEP               1
Info: NUMBER OF STEPS        0
Info: STEPS PER CYCLE        10
Info: PERIODIC CELL BASIS 1  72.449 0 0
Info: PERIODIC CELL BASIS 2  0 93.247 0
Info: PERIODIC CELL BASIS 3  0 0 79.185
Info: PERIODIC CELL CENTER   -0.248 -0.156 -0.047
Info: WRAPPING WATERS AROUND PERIODIC BOUNDARIES ON OUTPUT.
Info: WRAPPING ALL CLUSTERS AROUND PERIODIC BOUNDARIES ON OUTPUT.
Info: FIRST LDB TIMESTEP     50
Info: LAST LDB TIMESTEP     -1
Info: HOM BACKGROUND SCALING 1
Info: PME BACKGROUND SCALING 1
Info: MIN ATOMS PER PATCH    40
Info: VELOCITY FILE          ../replicas/rep5/equilibration/eq1.vel
Info: CENTER OF MASS MOVING INITIALLY? NO
Info: DIELECTRIC             1
Info: EXCLUDE                SCALED ONE-FOUR
Info: 1-4 ELECTROSTATICS SCALED BY 0.833333
Info: MODIFIED 1-4 VDW PARAMETERS WILL BE USED
Info: DCD FILENAME           ../replicas/rep5/equilibration/eq2.dcd
Info: DCD FREQUENCY          5000
Info: DCD FIRST STEP         5000
Info: DCD FILE WILL CONTAIN UNIT CELL DATA
Info: XST FILENAME           ../replicas/rep5/equilibration/eq2.xst
Info: XST FREQUENCY          5000
Info: NO VELOCITY DCD OUTPUT
Info: NO FORCE DCD OUTPUT
Info: OUTPUT FILENAME        ../replicas/rep5/equilibration/eq2
Info: RESTART FILENAME       ../replicas/rep5/equilibration/eq2.restart
Info: RESTART FREQUENCY      5000
Info: BINARY RESTART FILES WILL BE USED
Info: SWITCHING ACTIVE
Info: SWITCHING ON           10
Info: SWITCHING OFF          12
Info: PAIRLIST DISTANCE      13.5
Info: PAIRLIST SHRINK RATE   0.01
Info: PAIRLIST GROW RATE     0.01
Info: PAIRLIST TRIGGER       0.3
Info: PAIRLISTS PER CYCLE    2
Info: PAIRLISTS ENABLED
Info: MARGIN                 0.48
Info: HYDROGEN GROUP CUTOFF  2.5
Info: PATCH DIMENSION        16.48
Info: ENERGY OUTPUT STEPS    500
Info: CROSSTERM ENERGY INCLUDED IN DIHEDRAL
Info: TIMING OUTPUT STEPS    5000
Info: PRESSURE OUTPUT STEPS  500
Info: HARMONIC CONSTRAINTS ACTIVE
Info: HARMONIC CONS EXP      2
Info: HARMONIC CONS SCALING  10
Info: LANGEVIN DYNAMICS ACTIVE
Info: LANGEVIN TEMPERATURE   300
Info: LANGEVIN USING BBK INTEGRATOR
Info: LANGEVIN DAMPING COEFFICIENT IS 5 INVERSE PS
Info: LANGEVIN DYNAMICS NOT APPLIED TO HYDROGENS
Info: BERENDSEN PRESSURE COUPLING ACTIVE
Info:     TARGET PRESSURE IS 1 BAR
Info:     COMPRESSIBILITY ESTIMATE IS 4.57e-05 BAR^(-1)
Info:     RELAXATION TIME IS 100 FS
Info:     APPLIED EVERY 2 STEPS
Info:     PRESSURE CONTROL IS GROUP-BASED
Info:       CELL FLUCTUATION IS ISOTROPIC
Info: PARTICLE MESH EWALD (PME) ACTIVE
Info: PME TOLERANCE               1e-06
Info: PME EWALD COEFFICIENT       0.257952
Info: PME INTERPOLATION ORDER     4
Info: PME GRID DIMENSIONS         80 96 80
Info: PME MAXIMUM GRID SPACING    1
Info: FULL ELECTROSTATIC EVALUATION FREQUENCY      2
Info: USING VERLET I (r-RESPA) MTS SCHEME.
Info: C1 SPLITTING OF LONG RANGE ELECTROSTATICS
Info: PLACING ATOMS IN PATCHES BY HYDROGEN GROUPS
Info: RIGID BONDS TO HYDROGEN : WATER
Info:         ERROR TOLERANCE : 1e-05
Info:          MAX ITERATIONS : 100
Info: RIGID WATER USING SETTLE ALGORITHM
Info: RANDOM NUMBER SEED     1503258901
Info: USE HYDROGEN BONDS?    NO
Info: Using AMBER format force field!
Info: AMBER PARM FILE        ../build/complex.top
Info: COORDINATE PDB         ../replicas/rep5/equilibration/eq1.coor
Info: Exclusions in PARM file will be ignored!
Info: SCNB (VDW SCALING)     2
Info: USING ARITHMETIC MEAN TO COMBINE L-J SIGMA PARAMETERS
Info: SUMMARY OF PARAMETERS:
Info: 71 BONDS
Info: 145 ANGLES
Info: 76 DIHEDRAL
Info: 0 IMPROPER
Info: 0 CROSSTERM
Info: 0 VDW
Info: 190 VDW_PAIRS
Info: 0 NBTHOLE_PAIRS
Info: STRUCTURE SUMMARY:
Info: 49394 ATOMS
Info: 49448 BONDS
Info: 8698 ANGLES
Info: 18780 DIHEDRALS
Info: 0 IMPROPERS
Info: 0 CROSSTERMS
Info: 0 EXCLUSIONS
Info: 2336 CONSTRAINTS
Info: 44667 RIGID BONDS
Info: 103515 DEGREES OF FREEDOM
Info: 17225 HYDROGEN GROUPS
Info: 4 ATOMS IN LARGEST HYDROGEN GROUP
Info: 17225 MIGRATION GROUPS
Info: 4 ATOMS IN LARGEST MIGRATION GROUP
Info: TOTAL MASS = 301478 amu
Info: TOTAL CHARGE = 1.00115e-05 e
Info: MASS DENSITY = 0.935846 g/cm^3
Info: ATOM DENSITY = 0.0923345 atoms/A^3
Info: ADDED 70656 IMPLICIT EXCLUSIONS
Info: NONBONDED TABLE R-SQUARED SPACING: 0.0625
Info: NONBONDED TABLE SIZE: 769 POINTS
Info: REMOVING COM VELOCITY 0.0046298 0.00630026 0.0291217
TCL: Running for 5000 steps
ETITLE: TS BOND ANGLE DIHED IMPRP ELECT VDW BOUNDARY MISC KINETIC TOTAL TEMP POTENTIAL TOTAL3 TEMPAVG PRESSURE GPRESSURE VOLUME PRESSAVG GPRESSAVG
ENERGY: 0 389.3775 1229.6433 2907.2879 0.0000 -212982.0709 29733.7453 0.0000 0.0000 9940.2459 -168781.7710 96.6461 -178722.0169 -168772.1204 96.6461 -2278.7979 -2382.8054 534946.2959 -2278.7979 -2382.8054
ENERGY: 1000 1231.0732 2002.9544 3111.0575 0.0000 -193693.9373 26444.1444 772.5814 0.0000 23960.1951 -136171.9312 232.9579 -160132.1263 -136136.7178 218.1637 -17.1267 -41.1956 523585.6135 -7.0960 -7.0880
ENERGY: 2000 1490.9210 2167.0765 3148.1225 0.0000 -184447.0370 23566.4322 802.0584 0.0000 27628.4529 -125643.9736 268.6233 -153272.4265 -125604.6270 263.2194 -114.8107 -46.2290 516786.7880 -12.3475 -12.1921
ENERGY: 3000 1522.8204 2230.7048 3135.5054 0.0000 -179243.7223 21544.1004 818.9007 0.0000 29530.0873 -120461.6033 287.1123 -149991.6906 -120419.7021 284.0108 -101.3379 4.7809 511684.5182 -14.4256 -14.2238
ENERGY: 4000 1573.4351 2248.9633 3139.0243 0.0000 -177163.3759 21155.7911 805.2436 0.0000 30141.2740 -118099.6445 293.0547 -148240.9185 -118059.7089 291.7307 -8.2298 24.0640 508521.7477 -11.5379 -11.6237
ENERGY: 5000 1561.6468 2236.6768 3126.4505 0.0000 -176537.0357 20828.5820 796.7651 0.0000 30599.8615 -117387.0530 297.5134 -147986.9145 -117345.7742 296.9394 18.4949 -8.3004 506074.6539 -10.8302 -10.2748
TCL: Setting parameter constraintScaling to 5.0
TCL: Running for 5000 steps
ETITLE: TS BOND ANGLE DIHED IMPRP ELECT VDW BOUNDARY MISC KINETIC TOTAL TEMP POTENTIAL TOTAL3 TEMPAVG PRESSURE GPRESSURE VOLUME PRESSAVG GPRESSAVG
ENERGY: 5000 1561.6468 2236.6768 3126.4505 0.0000 -176537.0357 20828.5820 398.3826 0.0000 30597.8133 -117787.4838 297.4935 -148385.2971 -117743.2680 297.4935 34.2769 7.6527 506074.6539 34.2769 7.6527
ENERGY: 6000 1596.9678 2297.6125 3141.0857 0.0000 -176072.5239 20601.1376 633.2656 0.0000 30525.2233 -117277.2312 296.7877 -147802.4546 -117230.4816 297.7953 -32.0844 -21.3550 503800.7865 -4.5076 -4.5137
ENERGY: 7000 1604.1600 2288.6309 3178.2358 0.0000 -175683.2541 20349.7295 645.8521 0.0000 30718.4153 -116898.2305 298.6661 -147616.6457 -116847.6719 298.4222 -17.6939 44.9780 502661.8969 -5.6015 -5.3772
ENERGY: 8000 1612.3477 2297.8543 3126.9955 0.0000 -175720.9185 20265.8822 656.6178 0.0000 30729.1219 -117032.0990 298.7702 -147761.2209 -116986.1544 298.7330 -32.8878 -1.0398 503325.2125 6.0132 5.5325
ENERGY: 9000 1615.3197 2294.6227 3157.8051 0.0000 -175536.0672 20258.8000 623.2852 0.0000 30652.3825 -116933.8520 298.0241 -147586.2345 -116886.8086 299.2641 -23.5145 -0.3035 503716.4831 17.6279 18.0224
ENERGY: 10000 1594.3884 2286.5441 3161.1520 0.0000 -175676.7641 20273.3149 652.5991 0.0000 30692.4729 -117016.2927 298.4139 -147708.7656 -116966.5284 299.7800 73.1826 -14.9654 502900.4047 9.5048 9.5156
TCL: Setting parameter constraintScaling to 2.5
TCL: Running for 5000 steps
ETITLE: TS BOND ANGLE DIHED IMPRP ELECT VDW BOUNDARY MISC KINETIC TOTAL TEMP POTENTIAL TOTAL3 TEMPAVG PRESSURE GPRESSURE VOLUME PRESSAVG GPRESSAVG
ENERGY: 10000 1594.3884 2286.5441 3161.1520 0.0000 -175676.7641 20273.3149 326.2995 0.0000 30690.4366 -117344.6286 298.3941 -148035.0651 -117297.5106 298.3941 13.8490 -57.4154 502900.4047 13.8490 -57.4154
ENERGY: 11000 1597.7087 2290.4864 3195.1898 0.0000 -175544.0415 20224.5108 523.1062 0.0000 30918.4537 -116794.5859 300.6110 -147713.0396 -116739.2063 300.0742 -23.7088 27.0872 501941.4628 8.6415 8.3516
ENERGY: 12000 1583.1011 2356.1248 3176.4561 0.0000 -175740.7574 20141.9790 492.5436 0.0000 30612.7981 -117377.7547 297.6392 -147990.5528 -117333.5578 298.6066 -141.2324 28.9224 501033.9594 -6.8651 -6.5978
ENERGY: 13000 1647.9120 2379.4348 3153.2238 0.0000 -175245.1100 19752.1671 498.9765 0.0000 30838.0397 -116975.3562 299.8292 -147813.3959 -116930.7386 299.2279 -185.2039 -38.1343 499240.0137 -8.2874 -8.4433
ENERGY: 14000 1630.4009 2291.8132 3164.2751 0.0000 -175653.3928 20042.3765 515.6701 0.0000 30708.3922 -117300.4648 298.5686 -148008.8570 -117244.5971 298.9231 73.8516 7.2399 499151.8635 6.7487 6.6579
ENERGY: 15000 1640.4688 2289.5859 3178.3531 0.0000 -175837.0928 20077.1594 502.4041 0.0000 30939.9647 -117209.1567 300.8201 -148149.1214 -117163.1433 299.9360 -124.1681 -10.4007 499667.4406 -5.9081 -5.9464
TCL: Setting parameter constraintScaling to 1.25
TCL: Running for 5000 steps
ETITLE: TS BOND ANGLE DIHED IMPRP ELECT VDW BOUNDARY MISC KINETIC TOTAL TEMP POTENTIAL TOTAL3 TEMPAVG PRESSURE GPRESSURE VOLUME PRESSAVG GPRESSAVG
ENERGY: 15000 1640.4688 2289.5859 3178.3531 0.0000 -175837.0928 20077.1594 251.2021 0.0000 30937.9136 -117462.4098 300.8002 -148400.3235 -117420.2355 300.8002 -167.7691 -49.6324 499667.4406 -167.7691 -49.6324
ENERGY: 16000 1621.1161 2442.8513 3227.0730 0.0000 -175736.7670 20034.1303 409.8200 0.0000 30779.2774 -117222.4989 299.2578 -148001.7763 -117167.2677 299.5076 9.8433 -10.3496 500553.8940 0.7208 0.9794
ENERGY: 17000 1690.4013 2348.3808 3154.6356 0.0000 -175904.2844 20086.8428 404.4028 0.0000 30751.0466 -117468.5745 298.9833 -148219.6210 -117422.5522 299.0204 -83.7215 -31.2511 499546.6907 -17.3413 -16.9893
ENERGY: 18000 1668.4692 2371.1767 3188.4478 0.0000 -175882.7872 20099.3115 416.1444 0.0000 30836.8641 -117302.3735 299.8177 -148139.2376 -117258.1606 298.9427 -22.1982 8.8590 498471.9580 -1.9751 -2.0480
ENERGY: 19000 1609.0682 2299.0224 3196.6492 0.0000 -176124.2636 20140.5363 389.9538 0.0000 30789.0819 -117699.9517 299.3532 -148489.0336 -117653.6833 298.3253 -95.3975 -34.0649 497811.3945 -5.4499 -5.5897
ENERGY: 20000 1728.0281 2411.8289 3180.0030 0.0000 -175611.4589 20008.0973 390.3992 0.0000 30768.0953 -117125.0071 299.1491 -147893.1024 -117069.1222 300.2732 72.1641 10.1097 498983.2999 -2.0965 -1.5318
TCL: Setting parameter constraintScaling to 0.625
TCL: Running for 5000 steps
ETITLE: TS BOND ANGLE DIHED IMPRP ELECT VDW BOUNDARY MISC KINETIC TOTAL TEMP POTENTIAL TOTAL3 TEMPAVG PRESSURE GPRESSURE VOLUME PRESSAVG GPRESSAVG
ENERGY: 20000 1728.0281 2411.8289 3180.0030 0.0000 -175611.4589 20008.0973 195.1996 0.0000 30766.0282 -117322.2737 299.1290 -148088.3020 -117278.7719 299.1290 39.1679 -19.9198 498983.2999 39.1679 -19.9198
ENERGY: 21000 1642.2583 2383.7343 3202.4666 0.0000 -175602.7273 20004.2144 321.9421 0.0000 30768.5335 -117279.5781 299.1534 -148048.1116 -117232.5120 300.1716 12.3372 70.1757 498936.7001 9.0750 9.4873
ENERGY: 22000 1602.3627 2432.5557 3202.2501 0.0000 -175596.2809 19943.5556 316.2087 0.0000 31120.5707 -116978.7774 302.5761 -148099.3481 -116928.6473 300.2625 -105.0157 -79.2487 500261.2482 5.0716 5.5203
ENERGY: 23000 1698.0252 2405.1617 3190.5015 0.0000 -175539.7948 19939.8420 315.7807 0.0000 30715.0139 -117275.4697 298.6330 -147990.4836 -117226.4751 299.3103 -5.9055 21.5211 498477.9075 -5.0515 -4.5872
ENERGY: 24000 1681.9985 2450.9135 3181.4878 0.0000 -175851.8965 20216.1015 312.3210 0.0000 30843.2504 -117165.8238 299.8798 -148009.0742 -117121.6469 300.9418 -179.9270 -7.9064 498019.9597 0.4012 0.6075
ENERGY: 25000 1624.0406 2393.2610 3215.3052 0.0000 -175936.1024 20013.1788 298.0181 0.0000 30931.0877 -117461.2109 300.7338 -148392.2987 -117422.4193 299.4246 -89.3940 -22.7810 497800.3709 1.7175 1.6616
TCL: Setting parameter constraintScaling to 0.3125
TCL: Running for 5000 steps
ETITLE: TS BOND ANGLE DIHED IMPRP ELECT VDW BOUNDARY MISC KINETIC TOTAL TEMP POTENTIAL TOTAL3 TEMPAVG PRESSURE GPRESSURE VOLUME PRESSAVG GPRESSAVG
ENERGY: 25000 1624.0406 2393.2610 3215.3052 0.0000 -175936.1024 20013.1788 149.0090 0.0000 30929.0421 -117612.2656 300.7139 -148541.3077 -117569.0040 300.7139 -116.3287 -47.6202 497800.3709 -116.3287 -47.6202
ENERGY: 26000 1638.6860 2431.1509 3213.9810 0.0000 -175842.5237 20253.3310 242.8267 0.0000 30810.0207 -117252.5274 299.5567 -148062.5481 -117208.0715 299.5225 -115.7011 -27.3678 499150.9551 20.3277 21.1184
ENERGY: 27000 1663.2816 2343.8797 3214.2050 0.0000 -175889.5493 19923.8857 245.2250 0.0000 30751.2287 -117747.8435 298.9851 -148499.0723 -117703.8377 298.2775 19.9754 -26.5800 497530.1538 -1.1229 -0.7705
ENERGY: 28000 1577.7255 2421.3209 3169.6898 0.0000 -175972.9663 20035.4987 252.7417 0.0000 30882.9803 -117633.0095 300.2661 -148515.9897 -117589.3157 299.6592 15.1879 7.8792 497174.1833 -2.0665 -2.1116
ENERGY: 29000 1697.3566 2367.4492 3200.7042 0.0000 -176093.9792 20058.7033 244.8456 0.0000 30771.8549 -117753.0654 299.1857 -148524.9203 -117712.0561 299.0397 -29.0853 -1.4370 497677.1658 11.9897 11.8997
ENERGY: 30000 1622.7419 2451.0755 3197.1473 0.0000 -175681.4673 20016.1744 258.7627 0.0000 30668.0890 -117467.4766 298.1768 -148135.5655 -117414.4724 299.5058 27.1994 39.0274 497538.7208 0.0240 0.4670
TCL: Setting parameter constraintScaling to 0.15625
TCL: Running for 5000 steps
ETITLE: TS BOND ANGLE DIHED IMPRP ELECT VDW BOUNDARY MISC KINETIC TOTAL TEMP POTENTIAL TOTAL3 TEMPAVG PRESSURE GPRESSURE VOLUME PRESSAVG GPRESSAVG
ENERGY: 30000 1622.7419 2451.0755 3197.1473 0.0000 -175681.4673 20016.1744 129.3814 0.0000 30666.0419 -117598.9050 298.1569 -148264.9469 -117553.4412 298.1569 15.2660 19.1167 497538.7208 15.2660 19.1167
ENERGY: 31000 1610.7552 2396.9708 3228.4248 0.0000 -176187.9322 20203.2046 209.1122 0.0000 30757.4413 -117782.0233 299.0455 -148539.4646 -117730.2045 299.0115 -1.4076 -54.8599 497359.3030 9.5085 9.4201
ENERGY: 32000 1579.8082 2367.4405 3241.4946 0.0000 -175641.2251 19920.0311 195.1349 0.0000 31038.2862 -117299.0296 301.7761 -148337.3158 -117257.7932 299.7372 -11.0602 1.4275 498717.3634 13.1384 13.1592
ENERGY: 33000 1607.7692 2347.7211 3231.6050 0.0000 -175951.0413 19984.4997 197.0006 0.0000 30700.5979 -117881.8477 298.4928 -148582.4456 -117844.7475 298.2878 -51.9845 -101.0810 498064.2074 1.7409 1.2569
ENERGY: 34000 1595.8542 2397.6257 3229.5773 0.0000 -176280.5372 20206.4587 198.0602 0.0000 30645.6032 -118007.3579 297.9582 -148652.9611 -117960.6659 297.7415 -9.9657 -33.8365 498177.1333 -0.8220 -0.6462
ENERGY: 35000 1571.7004 2418.2052 3194.1689 0.0000 -175728.9014 19981.3263 183.4229 0.0000 30816.3059 -117563.7718 299.6178 -148380.0777 -117526.5044 299.4132 -4.4102 -14.4706 498436.6257 8.7186 8.9181
TCL: Setting parameter constraintScaling to 0.078125
TCL: Running for 5000 steps
ETITLE: TS BOND ANGLE DIHED IMPRP ELECT VDW BOUNDARY MISC KINETIC TOTAL TEMP POTENTIAL TOTAL3 TEMPAVG PRESSURE GPRESSURE VOLUME PRESSAVG GPRESSAVG
ENERGY: 35000 1571.7004 2418.2052 3194.1689 0.0000 -175728.9014 19981.3263 91.7114 0.0000 30814.2518 -117657.5373 299.5979 -148471.7892 -117613.1913 299.5979 -39.5946 -49.1605 498436.6257 -39.5946 -49.1605
ENERGY: 36000 1653.3574 2380.1198 3216.2772 0.0000 -175891.6337 20172.8401 143.2274 0.0000 30848.2051 -117477.6067 299.9280 -148325.8118 -117427.6023 299.5746 95.5449 77.3346 498197.9040 8.7188 8.9068
ENERGY: 37000 1647.7707 2371.9982 3216.4494 0.0000 -175943.1124 20003.0766 154.2547 0.0000 30960.0795 -117589.4832 301.0157 -148549.5627 -117553.1014 298.8212 -59.0133 33.7630 497654.5469 4.6901 4.1305
ENERGY: 38000 1634.3717 2396.1385 3185.6862 0.0000 -176067.4013 20092.7795 161.1126 0.0000 30702.6077 -117894.7052 298.5124 -148597.3128 -117840.7189 299.2461 -19.6572 -69.1501 497181.6583 -7.2672 -7.1488
ENERGY: 39000 1612.2966 2430.3962 3186.5721 0.0000 -176022.9211 20121.0407 153.1723 0.0000 30833.1906 -117686.2528 299.7820 -148519.4434 -117644.6092 299.5964 68.8199 74.6492 497563.9396 8.8811 8.8203
ENERGY: 40000 1652.9070 2378.4045 3186.3722 0.0000 -176039.7660 20200.2164 165.9669 0.0000 30973.0902 -117482.8088 301.1422 -148455.8991 -117437.8175 299.7541 -55.2114 -11.4057 499238.2651 16.6146 16.1412
TCL: Setting parameter constraintScaling to 0.0390625
TCL: Running for 5000 steps
ETITLE: TS BOND ANGLE DIHED IMPRP ELECT VDW BOUNDARY MISC KINETIC TOTAL TEMP POTENTIAL TOTAL3 TEMPAVG PRESSURE GPRESSURE VOLUME PRESSAVG GPRESSAVG
ENERGY: 40000 1652.9070 2378.4045 3186.3722 0.0000 -176039.7659 20200.2164 82.9834 0.0000 30971.0192 -117567.8633 301.1221 -148538.8825 -117525.3515 301.1221 -61.8621 -21.4441 499238.2651 -61.8621 -21.4441
ENERGY: 41000 1619.0837 2417.1877 3204.5164 0.0000 -176171.3792 20128.4454 114.3015 0.0000 30791.6021 -117896.2424 299.3777 -148687.8445 -117843.9502 299.2882 85.9412 63.1288 497315.3216 -10.7436 -10.8108
ENERGY: 42000 1661.4453 2389.7807 3204.5558 0.0000 -175822.4948 20188.5322 113.3412 0.0000 30813.0409 -117451.7988 299.5861 -148264.8397 -117407.6712 300.0734 24.5314 19.0719 498638.5155 4.6368 4.3241
ENERGY: 43000 1647.8549 2461.6164 3215.7185 0.0000 -175816.5299 19942.8871 118.3413 0.0000 30826.2878 -117603.8239 299.7149 -148430.1117 -117563.7345 299.1697 89.0173 39.7039 497392.3975 -2.1925 -2.2766
ENERGY: 44000 1672.5853 2443.7116 3252.5473 0.0000 -175921.8186 20032.2302 123.7137 0.0000 30610.3281 -117786.7023 297.6152 -148397.0304 -117728.9802 298.7974 119.5728 107.9583 496117.8200 -19.9202 -19.9996
ENERGY: 45000 1606.9209 2424.4781 3225.8781 0.0000 -175848.4644 20134.7705 117.3420 0.0000 30782.7350 -117556.3398 299.2914 -148339.0748 -117506.4261 299.1982 117.2496 105.1095 497181.5960 1.7864 1.1957
TCL: Setting parameter constraintScaling to 0.01953125
TCL: Running for 5000 steps
ETITLE: TS BOND ANGLE DIHED IMPRP ELECT VDW BOUNDARY MISC KINETIC TOTAL TEMP POTENTIAL TOTAL3 TEMPAVG PRESSURE GPRESSURE VOLUME PRESSAVG GPRESSAVG
ENERGY: 45000 1606.9209 2424.4781 3225.8781 0.0000 -175848.4644 20134.7705 58.6710 0.0000 30780.7101 -117617.0357 299.2718 -148397.7458 -117575.3938 299.2718 102.9939 96.8187 497181.5960 102.9939 96.8187
ENERGY: 46000 1638.6045 2417.6800 3169.5547 0.0000 -175920.2865 20063.4748 76.9232 0.0000 30832.0308 -117722.0185 299.7707 -148554.0493 -117665.4581 299.1924 -96.2016 -11.2538 497385.1080 0.7760 0.6846
ENERGY: 47000 1602.4633 2373.7787 3233.8457 0.0000 -175741.1180 20124.3642 78.8160 0.0000 30852.7012 -117475.1488 299.9717 -148327.8500 -117439.2137 300.2816 97.2787 142.0334 497811.3734 11.6466 11.5320
ENERGY: 48000 1616.9098 2400.7764 3202.9650 0.0000 -176016.8841 20019.2258 81.6448 0.0000 30785.3960 -117909.9663 299.3173 -148695.3623 -117870.5005 299.0671 -17.5486 52.3580 497076.1403 1.2302 1.3927
ENERGY: 49000 1609.4109 2462.4408 3215.6915 0.0000 -175991.7965 19995.0134 88.2475 0.0000 30962.6305 -117658.3620 301.0405 -148620.9925 -117610.4129 299.2220 -101.5162 -24.3797 497152.6612 -3.3159 -3.2127
ENERGY: 50000 1620.6017 2443.1256 3215.6936 0.0000 -175740.3759 20179.8780 87.3643 0.0000 30843.0891 -117350.6237 299.8782 -148193.7128 -117290.8734 301.1178 53.4455 65.4664 498229.4875 10.9584 11.1010
TCL: Setting parameter constraintScaling to 0
TCL: Running for 5000 steps
ETITLE: TS BOND ANGLE DIHED IMPRP ELECT VDW BOUNDARY MISC KINETIC TOTAL TEMP POTENTIAL TOTAL3 TEMPAVG PRESSURE GPRESSURE VOLUME PRESSAVG GPRESSAVG
ENERGY: 50000 1620.6017 2443.1256 3215.6936 0.0000 -175740.3760 20179.8780 0.0000 0.0000 30841.0054 -117440.0717 299.8580 -148281.0771 -117395.8517 299.8580 38.3679 54.1793 498229.4875 38.3679 54.1793
ENERGY: 51000 1579.6101 2471.6637 3207.9598 0.0000 -175795.8416 19951.9992 0.0000 0.0000 30838.1183 -117746.4905 299.8299 -148584.6089 -117703.2368 299.2831 -37.0095 73.7583 495325.7326 -8.7172 -8.3436
ENERGY: 52000 1653.6113 2430.4476 3183.7227 0.0000 -176048.0406 20186.2605 0.0000 0.0000 30773.4666 -117820.5318 299.2013 -148593.9985 -117774.1099 299.1836 95.8449 51.3911 496317.3396 0.7063 0.9984
ENERGY: 53000 1690.0890 2383.3891 3186.0193 0.0000 -175925.6023 20040.5945 0.0000 0.0000 30821.2505 -117804.2600 299.6659 -148625.5104 -117767.9210 299.7185 -193.5744 -79.4829 496342.3665 5.8049 5.6343
ENERGY: 54000 1674.3790 2376.1955 3208.1367 0.0000 -176107.0292 20138.8520 0.0000 0.0000 30876.6361 -117832.8298 300.2044 -148709.4660 -117787.9618 300.0310 -45.3856 -36.6373 496476.0645 13.8394 12.7959
ENERGY: 55000 1602.5716 2382.3891 3191.1675 0.0000 -175867.1643 19897.3218 0.0000 0.0000 30938.3066 -117855.4077 300.8040 -148793.7143 -117806.8671 298.9200 -68.1629 -67.5395 496051.3925 1.7393 1.7261
