Info: SIMULATION PARAMETERS:
Info: TIMESTEP               2
Info: NUMBER OF STEPS        0
Info: STEPS PER CYCLE        10
Info: PERIODIC CELL BASIS 1  72.449 0 0
Info: PERIODIC CELL BASIS 2  0 93.247 0
Info: PERIODIC CELL BASIS 3  0 0 79.185
Info: PERIODIC CELL CENTER   -0.248 -0.156 -0.047
Info: WRAPPING WATERS AROUND PERIODIC BOUNDARIES ON OUTPUT.
Info: WRAPPING ALL CLUSTERS AROUND PERIODIC BOUNDARIES ON OUTPUT.
Info: FIRST LDB TIMESTEP     50
Info: LAST LDB TIMESTEP     -1
Info: HOM BACKGROUND SCALING 1
Info: PME BACKGROUND SCALING 1
Info: MIN ATOMS PER PATCH    40
Info: INITIAL TEMPERATURE    0
Info: CENTER OF MASS MOVING INITIALLY? NO
Info: DIELECTRIC             1
Info: EXCLUDE                SCALED ONE-FOUR
Info: 1-4 ELECTROSTATICS SCALED BY 0.833333
Info: MODIFIED 1-4 VDW PARAMETERS WILL BE USED
Info: NO DCD TRAJECTORY OUTPUT
Info: NO EXTENDED SYSTEM TRAJECTORY OUTPUT
Info: NO VELOCITY DCD OUTPUT
Info: NO FORCE DCD OUTPUT
Info: OUTPUT FILENAME        ../replicas/rep87/equilibration/eq0
Info: NO RESTART FILE
Info: SWITCHING ACTIVE
Info: SWITCHING ON           10
Info: SWITCHING OFF          12
Info: PAIRLIST DISTANCE      13.5
Info: PAIRLIST SHRINK RATE   0.01
Info: PAIRLIST GROW RATE     0.01
Info: PAIRLIST TRIGGER       0.3
Info: PAIRLISTS PER CYCLE    2
Info: PAIRLISTS ENABLED
Info: MARGIN                 0
Info: HYDROGEN GROUP CUTOFF  2.5
Info: PATCH DIMENSION        16
Info: ENERGY OUTPUT STEPS    500
Info: CROSSTERM ENERGY INCLUDED IN DIHEDRAL
Info: TIMING OUTPUT STEPS    5000
Info: PRESSURE OUTPUT STEPS  500
Info: HARMONIC CONSTRAINTS ACTIVE
Info: HARMONIC CONS EXP      2
Info: HARMONIC CONS SCALING  10
Info: CONJUGATE GRADIENT MINIMIZATION ACTIVE
Info: LINE MINIMIZATION GOAL = 0.001
Info: BABY STEP SIZE = 0.01
Info: TINY STEP SIZE = 1e-06
Info: PARTICLE MESH EWALD (PME) ACTIVE
Info: PME TOLERANCE               1e-06
Info: PME EWALD COEFFICIENT       0.257952
Info: PME INTERPOLATION ORDER     4
Info: PME GRID DIMENSIONS         80 96 80
Info: PME MAXIMUM GRID SPACING    1
Info: FULL ELECTROSTATIC EVALUATION FREQUENCY      2
Info: USING VERLET I (r-RESPA) MTS SCHEME.
Info: C1 SPLITTING OF LONG RANGE ELECTROSTATICS
Info: PLACING ATOMS IN PATCHES BY HYDROGEN GROUPS
Info: RIGID BONDS TO HYDROGEN : ALL
Info:         ERROR TOLERANCE : 1e-05
Info:          MAX ITERATIONS : 100
Info: RIGID WATER USING SETTLE ALGORITHM
Info: RANDOM NUMBER SEED     1503690976
Info: USE HYDROGEN BONDS?    NO
Info: Using AMBER format force field!
Info: AMBER PARM FILE        ../build/complex.top
Info: COORDINATE PDB         ../build/complex.pdb
Info: Exclusions in PARM file will be ignored!
Info: SCNB (VDW SCALING)     2
Info: USING ARITHMETIC MEAN TO COMBINE L-J SIGMA PARAMETERS
Info: SUMMARY OF PARAMETERS:
Info: 71 BONDS
Info: 145 ANGLES
Info: 76 DIHEDRAL
Info: 0 IMPROPER
Info: 0 CROSSTERM
Info: 0 VDW
Info: 190 VDW_PAIRS
Info: 0 NBTHOLE_PAIRS
Info: STRUCTURE SUMMARY:
Info: 49394 ATOMS
Info: 49448 BONDS
Info: 8698 ANGLES
Info: 18780 DIHEDRALS
Info: 0 IMPROPERS
Info: 0 CROSSTERMS
Info: 0 EXCLUSIONS
Info: 2336 CONSTRAINTS
Info: 47058 RIGID BONDS
Info: 101124 DEGREES OF FREEDOM
Info: 17225 HYDROGEN GROUPS
Info: 4 ATOMS IN LARGEST HYDROGEN GROUP
Info: 17225 MIGRATION GROUPS
Info: 4 ATOMS IN LARGEST MIGRATION GROUP
Info: TOTAL MASS = 301478 amu
Info: TOTAL CHARGE = 1.00115e-05 e
Info: MASS DENSITY = 0.935846 g/cm^3
Info: ATOM DENSITY = 0.0923345 atoms/A^3
Info: ADDED 70656 IMPLICIT EXCLUSIONS
Info: NONBONDED TABLE R-SQUARED SPACING: 0.0625
Info: NONBONDED TABLE SIZE: 769 POINTS
Info: REMOVING COM VELOCITY 0 0 0
TCL: Minimizing for 100 steps
ETITLE: TS BOND ANGLE DIHED IMPRP ELECT VDW BOUNDARY MISC KINETIC TOTAL TEMP POTENTIAL TOTAL3 TEMPAVG PRESSURE GPRESSURE VOLUME PRESSAVG GPRESSAVG
ENERGY: 0 155.4176 1012.2698 2855.7272 0.0000 -154496.7912 207729.2052 0.0468 0.0000 0.0000 57255.8754 0.0000 57255.8754 57255.8754 0.0000 116350.2532 86546.1670 534946.2959 116350.2532 86546.1670
ENERGY: 20 304.7552 935.7912 2893.4663 0.0000 -158672.9406 17936.6594 143.9454 0.0000 0.0000 -136458.3232 0.0000 -136458.3232 -136458.3232 0.0000 16523.9386 -239.4559 534946.2959 16523.9386 -239.4559
ENERGY: 40 198.7428 799.5725 2896.9273 0.0000 -162811.4528 16417.9538 221.3029 0.0000 0.0000 -142276.9535 0.0000 -142276.9535 -142276.9535 0.0000 15011.2704 -2135.4696 534946.2959 15011.2704 -2135.4696
ENERGY: 60 130.5285 715.3440 2898.2166 0.0000 -167496.1538 15446.7544 315.2795 0.0000 0.0000 -147990.0308 0.0000 -147990.0308 -147990.0308 0.0000 13793.8844 -3799.3977 534946.2959 13793.8844 -3799.3977
ENERGY: 80 431.2742 765.6309 2904.3784 0.0000 -169937.5270 15121.1526 372.0122 0.0000 0.0000 -150343.0786 0.0000 -150343.0786 -150343.0786 0.0000 13270.3315 -4577.2440 534946.2959 13270.3315 -4577.2440
ENERGY: 100 129.7145 708.0651 2904.2780 0.0000 -171050.0647 15018.6536 384.1999 0.0000 0.0000 -151905.1537 0.0000 -151905.1537 -151905.1537 0.0000 13092.9130 -4843.6313 534946.2959 13092.9130 -4843.6313
TCL: Setting parameter constraintScaling to 5.0
TCL: Minimizing for 100 steps
ETITLE: TS BOND ANGLE DIHED IMPRP ELECT VDW BOUNDARY MISC KINETIC TOTAL TEMP POTENTIAL TOTAL3 TEMPAVG PRESSURE GPRESSURE VOLUME PRESSAVG GPRESSAVG
ENERGY: 100 129.7145 708.0651 2904.2780 0.0000 -171050.0647 15018.6536 192.1000 0.0000 0.0000 -152097.2537 0.0000 -152097.2537 -152097.2537 0.0000 13703.5082 -22944.4540 534946.2959 13703.5082 -22944.4540
ENERGY: 120 118.6821 680.2876 2909.9066 0.0000 -172396.3137 14830.1205 259.9549 0.0000 0.0000 -153597.3619 0.0000 -153597.3619 -153597.3619 0.0000 13320.9473 -4756.3073 534946.2959 13320.9473 -4756.3073
ENERGY: 140 109.1487 671.1471 2912.0863 0.0000 -174830.2607 14716.1439 337.7307 0.0000 0.0000 -156084.0041 0.0000 -156084.0041 -156084.0041 0.0000 12908.9587 -5423.1467 534946.2959 12908.9587 -5423.1467
ENERGY: 160 125.8532 667.1496 2914.1926 0.0000 -175967.0281 14735.1334 362.9184 0.0000 0.0000 -157161.7808 0.0000 -157161.7808 -157161.7808 0.0000 12806.8980 -5643.4587 534946.2959 12806.8980 -5643.4587
ENERGY: 180 303.5128 659.6789 2917.2964 0.0000 -177408.6685 14815.0117 395.3817 0.0000 0.0000 -158317.7869 0.0000 -158317.7869 -158317.7869 0.0000 12699.3180 -5900.5261 534946.2959 12699.3180 -5900.5261
ENERGY: 200 109.2106 628.4795 2923.3592 0.0000 -179544.1004 15071.1981 441.8892 0.0000 0.0000 -160369.9638 0.0000 -160369.9638 -160369.9638 0.0000 12659.9900 -6161.2464 534946.2959 12659.9900 -6161.2464
TCL: Setting parameter constraintScaling to 2.5
TCL: Minimizing for 100 steps
ETITLE: TS BOND ANGLE DIHED IMPRP ELECT VDW BOUNDARY MISC KINETIC TOTAL TEMP POTENTIAL TOTAL3 TEMPAVG PRESSURE GPRESSURE VOLUME PRESSAVG GPRESSAVG
ENERGY: 200 109.2106 628.4795 2923.3592 0.0000 -179544.1004 15071.1981 220.9446 0.0000 0.0000 -160590.9084 0.0000 -160590.9084 -160590.9084 0.0000 13208.4187 -25280.4125 534946.2959 13208.4187 -25280.4125
ENERGY: 220 169.2761 639.8090 2924.9630 0.0000 -180454.1840 15113.9800 291.3358 0.0000 0.0000 -161314.8202 0.0000 -161314.8202 -161314.8202 0.0000 13002.2592 -5924.1484 534946.2959 13002.2592 -5924.1484
ENERGY: 240 251.8259 643.1697 2921.4028 0.0000 -181893.9250 15358.8877 339.5298 0.0000 0.0000 -162379.1091 0.0000 -162379.1091 -162379.1091 0.0000 12964.1016 -6116.8966 534946.2959 12964.1016 -6116.8966
ENERGY: 260 174.3134 639.0360 2923.9322 0.0000 -184180.7034 15907.6918 437.4953 0.0000 0.0000 -164098.2347 0.0000 -164098.2347 -164098.2347 0.0000 13009.0332 -6315.6027 534946.2959 13009.0332 -6315.6027
ENERGY: 280 149.1988 648.9903 2918.1898 0.0000 -184715.4733 16069.6860 427.6257 0.0000 0.0000 -164501.7827 0.0000 -164501.7827 -164501.7827 0.0000 13128.3787 -6270.0458 534946.2959 13128.3787 -6270.0458
ENERGY: 300 233.4192 694.0588 2927.7997 0.0000 -186445.8412 16634.3018 426.2362 0.0000 0.0000 -165530.0255 0.0000 -165530.0255 -165530.0255 0.0000 13384.5506 -6210.4918 534946.2959 13384.5506 -6210.4918
TCL: Setting parameter constraintScaling to 1.25
TCL: Minimizing for 100 steps
ETITLE: TS BOND ANGLE DIHED IMPRP ELECT VDW BOUNDARY MISC KINETIC TOTAL TEMP POTENTIAL TOTAL3 TEMPAVG PRESSURE GPRESSURE VOLUME PRESSAVG GPRESSAVG
ENERGY: 300 233.4192 694.0588 2927.7997 0.0000 -186445.8412 16634.3018 213.1181 0.0000 0.0000 -165743.1436 0.0000 -165743.1436 -165743.1436 0.0000 13795.1704 -26298.0041 534946.2959 13795.1704 -26298.0041
ENERGY: 320 166.8274 649.1465 2910.7975 0.0000 -186882.2876 16723.4349 245.4771 0.0000 0.0000 -166186.6043 0.0000 -166186.6043 -166186.6043 0.0000 13784.0119 -5852.7460 534946.2959 13784.0119 -5852.7460
ENERGY: 340 215.5935 689.0638 2917.8605 0.0000 -188492.4631 17164.9299 357.6182 0.0000 0.0000 -167147.3973 0.0000 -167147.3973 -167147.3973 0.0000 13726.6507 -6072.6037 534946.2959 13726.6507 -6072.6037
ENERGY: 360 173.2550 675.7055 2905.1685 0.0000 -188855.0971 17313.6947 341.6568 0.0000 0.0000 -167445.6165 0.0000 -167445.6165 -167445.6165 0.0000 13853.8635 -5999.3821 534946.2959 13853.8635 -5999.3821
ENERGY: 380 146.3113 635.1084 2908.1946 0.0000 -189656.3973 17609.5123 337.4348 0.0000 0.0000 -168019.8360 0.0000 -168019.8360 -168019.8360 0.0000 14032.6347 -5921.8976 534946.2959 14032.6347 -5921.8976
ENERGY: 400 218.0312 684.1290 2905.1312 0.0000 -191763.3060 18453.0407 384.9329 0.0000 0.0000 -169118.0410 0.0000 -169118.0410 -169118.0410 0.0000 14378.6471 -5825.1515 534946.2959 14378.6471 -5825.1515
TCL: Setting parameter constraintScaling to 0.625
TCL: Minimizing for 100 steps
ETITLE: TS BOND ANGLE DIHED IMPRP ELECT VDW BOUNDARY MISC KINETIC TOTAL TEMP POTENTIAL TOTAL3 TEMPAVG PRESSURE GPRESSURE VOLUME PRESSAVG GPRESSAVG
ENERGY: 400 218.0312 684.1290 2905.1312 0.0000 -191763.3060 18453.0407 192.4664 0.0000 0.0000 -169310.5074 0.0000 -169310.5074 -169310.5074 0.0000 14675.8689 -26673.9058 534946.2959 14675.8689 -26673.9058
ENERGY: 420 137.0659 617.9982 2892.6937 0.0000 -191955.1959 18494.2557 204.5314 0.0000 0.0000 -169608.6509 0.0000 -169608.6509 -169608.6509 0.0000 14658.3730 -5545.6830 534946.2959 14658.3730 -5545.6830
ENERGY: 440 162.8619 656.5032 2891.3714 0.0000 -192819.1692 18736.9871 255.0411 0.0000 0.0000 -170116.4047 0.0000 -170116.4047 -170116.4047 0.0000 14627.4336 -5660.3105 534946.2959 14627.4336 -5660.3105
ENERGY: 460 147.7794 645.5961 2883.3877 0.0000 -193364.7200 18926.0395 278.2288 0.0000 0.0000 -170483.6884 0.0000 -170483.6884 -170483.6884 0.0000 14717.2629 -5651.0910 534946.2959 14717.2629 -5651.0910
ENERGY: 480 159.2416 639.9196 2883.0687 0.0000 -193817.2048 19111.8989 277.2344 0.0000 0.0000 -170745.8416 0.0000 -170745.8416 -170745.8416 0.0000 14827.8032 -5585.1080 534946.2959 14827.8032 -5585.1080
ENERGY: 500 236.4901 714.5722 2897.6650 0.0000 -195738.6168 19947.4988 305.4514 0.0000 0.0000 -171636.9393 0.0000 -171636.9393 -171636.9393 0.0000 15237.6463 -5408.7445 534946.2959 15237.6463 -5408.7445
TCL: Setting parameter constraintScaling to 0.3125
TCL: Minimizing for 100 steps
ETITLE: TS BOND ANGLE DIHED IMPRP ELECT VDW BOUNDARY MISC KINETIC TOTAL TEMP POTENTIAL TOTAL3 TEMPAVG PRESSURE GPRESSURE VOLUME PRESSAVG GPRESSAVG
ENERGY: 500 236.4901 714.5722 2897.6650 0.0000 -195738.6168 19947.4988 152.7257 0.0000 0.0000 -171789.6650 0.0000 -171789.6650 -171789.6650 0.0000 15434.1593 -26849.8173 534946.2959 15434.1593 -26849.8173
ENERGY: 520 148.8862 628.6876 2874.2073 0.0000 -195921.4084 19965.8959 165.2691 0.0000 0.0000 -172138.4622 0.0000 -172138.4622 -172138.4622 0.0000 15411.6920 -5233.0186 534946.2959 15411.6920 -5233.0186
ENERGY: 540 161.0179 665.5933 2873.2637 0.0000 -196446.8174 20106.5478 195.4974 0.0000 0.0000 -172444.8974 0.0000 -172444.8974 -172444.8974 0.0000 15380.6048 -5334.2295 534946.2959 15380.6048 -5334.2295
ENERGY: 560 168.6450 661.2350 2868.9530 0.0000 -196653.5042 20185.4727 192.1299 0.0000 0.0000 -172577.0685 0.0000 -172577.0685 -172577.0685 0.0000 15417.3819 -5309.9895 534946.2959 15417.3819 -5309.9895
ENERGY: 580 183.8022 693.4943 2882.0752 0.0000 -197300.4742 20467.3036 194.3055 0.0000 0.0000 -172879.4933 0.0000 -172879.4933 -172879.4933 0.0000 15619.9509 -5205.9659 534946.2959 15619.9509 -5205.9659
ENERGY: 600 193.1766 672.9529 2883.4294 0.0000 -198654.4052 21034.3017 225.9683 0.0000 0.0000 -173644.5763 0.0000 -173644.5763 -173644.5763 0.0000 15867.7780 -5085.2453 534946.2959 15867.7780 -5085.2453
TCL: Setting parameter constraintScaling to 0.15625
TCL: Minimizing for 100 steps
ETITLE: TS BOND ANGLE DIHED IMPRP ELECT VDW BOUNDARY MISC KINETIC TOTAL TEMP POTENTIAL TOTAL3 TEMPAVG PRESSURE GPRESSURE VOLUME PRESSAVG GPRESSAVG
ENERGY: 600 193.1766 672.9529 2883.4294 0.0000 -198654.4052 21034.3017 112.9842 0.0000 0.0000 -173757.5605 0.0000 -173757.5605 -173757.5605 0.0000 15992.1276 -26986.8009 534946.2959 15992.1276 -26986.8009
ENERGY: 620 163.8483 642.5218 2857.3927 0.0000 -198892.7363 21055.5648 121.4745 0.0000 0.0000 -174051.9341 0.0000 -174051.9341 -174051.9341 0.0000 15937.6190 -5048.5159 534946.2959 15937.6190 -5048.5159
ENERGY: 640 193.9522 693.8613 2864.6821 0.0000 -199532.7298 21263.1943 142.7423 0.0000 0.0000 -174374.2975 0.0000 -174374.2975 -174374.2975 0.0000 15960.3359 -5102.5100 534946.2959 15960.3359 -5102.5100
ENERGY: 660 166.5454 686.6468 2854.0635 0.0000 -199774.2951 21336.5338 144.8468 0.0000 0.0000 -174585.6587 0.0000 -174585.6587 -174585.6587 0.0000 16032.9778 -5072.0830 534946.2959 16032.9778 -5072.0830
ENERGY: 680 165.5325 658.4452 2854.8955 0.0000 -200169.6326 21501.6740 139.2782 0.0000 0.0000 -174849.8073 0.0000 -174849.8073 -174849.8073 0.0000 16185.7499 -4973.9382 534946.2959 16185.7499 -4973.9382
ENERGY: 700 180.8798 684.6651 2871.7079 0.0000 -200927.5466 21852.9336 146.6042 0.0000 0.0000 -175190.7559 0.0000 -175190.7559 -175190.7559 0.0000 16340.5618 -4872.7149 534946.2959 16340.5618 -4872.7149
TCL: Setting parameter constraintScaling to 0.078125
TCL: Minimizing for 100 steps
ETITLE: TS BOND ANGLE DIHED IMPRP ELECT VDW BOUNDARY MISC KINETIC TOTAL TEMP POTENTIAL TOTAL3 TEMPAVG PRESSURE GPRESSURE VOLUME PRESSAVG GPRESSAVG
ENERGY: 700 180.8798 684.6651 2871.7079 0.0000 -200927.5466 21852.9336 73.3021 0.0000 0.0000 -175264.0580 0.0000 -175264.0580 -175264.0580 0.0000 16413.3410 -27114.5431 534946.2959 16413.3410 -27114.5431
ENERGY: 720 152.0935 650.9649 2844.2916 0.0000 -201118.8926 21854.9851 77.4975 0.0000 0.0000 -175539.0600 0.0000 -175539.0600 -175539.0600 0.0000 16383.3118 -4871.6756 534946.2959 16383.3118 -4871.6756
ENERGY: 740 215.0172 718.9583 2853.2233 0.0000 -201568.4910 22006.0232 89.1834 0.0000 0.0000 -175686.0856 0.0000 -175686.0856 -175686.0856 0.0000 16417.8731 -4895.0298 534946.2959 16417.8731 -4895.0298
ENERGY: 760 183.9623 702.2529 2851.4247 0.0000 -201984.9457 22170.2879 93.9619 0.0000 0.0000 -175983.0560 0.0000 -175983.0560 -175983.0560 0.0000 16427.9708 -4918.1713 534946.2959 16427.9708 -4918.1713
ENERGY: 780 200.0246 667.2062 2832.8108 0.0000 -202179.4074 22247.0596 90.2974 0.0000 0.0000 -176142.0088 0.0000 -176142.0088 -176142.0088 0.0000 16471.7007 -4888.5469 534946.2959 16471.7007 -4888.5469
ENERGY: 800 157.3357 662.1420 2847.4007 0.0000 -202542.4789 22432.6265 89.7186 0.0000 0.0000 -176353.2554 0.0000 -176353.2554 -176353.2554 0.0000 16758.7457 -4679.1895 534946.2959 16758.7457 -4679.1895
TCL: Setting parameter constraintScaling to 0.0390625
TCL: Minimizing for 100 steps
ETITLE: TS BOND ANGLE DIHED IMPRP ELECT VDW BOUNDARY MISC KINETIC TOTAL TEMP POTENTIAL TOTAL3 TEMPAVG PRESSURE GPRESSURE VOLUME PRESSAVG GPRESSAVG
ENERGY: 800 157.3357 662.1420 2847.4007 0.0000 -202542.4789 22432.6265 44.8593 0.0000 0.0000 -176398.1147 0.0000 -176398.1147 -176398.1147 0.0000 16799.7443 -27111.3194 534946.2959 16799.7443 -27111.3194
ENERGY: 820 162.3116 652.1274 2827.1062 0.0000 -202757.9463 22471.8577 47.6705 0.0000 0.0000 -176596.8730 0.0000 -176596.8730 -176596.8730 0.0000 16690.8616 -4755.1097 534946.2959 16690.8616 -4755.1097
ENERGY: 840 174.5338 679.3298 2834.2585 0.0000 -203135.9476 22623.0906 52.0349 0.0000 0.0000 -176772.7001 0.0000 -176772.7001 -176772.7001 0.0000 16708.1359 -4775.9417 534946.2959 16708.1359 -4775.9417
ENERGY: 860 175.9283 662.0438 2829.7722 0.0000 -203525.3207 22797.3047 51.1537 0.0000 0.0000 -177009.1180 0.0000 -177009.1180 -177009.1180 0.0000 16942.6750 -4611.9408 534946.2959 16942.6750 -4611.9408
ENERGY: 880 154.7846 660.5704 2833.3129 0.0000 -204407.6053 23222.6639 55.1968 0.0000 0.0000 -177481.0768 0.0000 -177481.0768 -177481.0768 0.0000 17167.1053 -4490.6582 534946.2959 17167.1053 -4490.6582
ENERGY: 900 173.1356 665.7457 2813.6883 0.0000 -205301.0491 23633.9303 62.8457 0.0000 0.0000 -177951.7034 0.0000 -177951.7034 -177951.7034 0.0000 17280.0954 -4470.7167 534946.2959 17280.0954 -4470.7167
TCL: Setting parameter constraintScaling to 0.01953125
TCL: Minimizing for 100 steps
ETITLE: TS BOND ANGLE DIHED IMPRP ELECT VDW BOUNDARY MISC KINETIC TOTAL TEMP POTENTIAL TOTAL3 TEMPAVG PRESSURE GPRESSURE VOLUME PRESSAVG GPRESSAVG
ENERGY: 900 173.1356 665.7457 2813.6883 0.0000 -205301.0491 23633.9303 31.4229 0.0000 0.0000 -177983.1263 0.0000 -177983.1263 -177983.1263 0.0000 17305.1751 -27256.8679 534946.2959 17305.1751 -27256.8679
ENERGY: 920 160.5381 658.5854 2812.1222 0.0000 -205428.1921 23671.2428 31.6031 0.0000 0.0000 -178094.1004 0.0000 -178094.1004 -178094.1004 0.0000 17354.4131 -4415.4537 534946.2959 17354.4131 -4415.4537
ENERGY: 940 189.9098 651.8178 2811.0542 0.0000 -205604.3027 23740.0249 32.1890 0.0000 0.0000 -178179.3070 0.0000 -178179.3070 -178179.3070 0.0000 17380.7349 -4396.3177 534946.2959 17380.7349 -4396.3177
ENERGY: 960 160.8804 648.8876 2810.0299 0.0000 -205665.6055 23762.0883 32.3937 0.0000 0.0000 -178251.3256 0.0000 -178251.3256 -178251.3256 0.0000 17374.8166 -4414.3955 534946.2959 17374.8166 -4414.3955
ENERGY: 980 174.6778 663.7816 2808.9524 0.0000 -205798.6233 23808.4975 32.9560 0.0000 0.0000 -178309.7580 0.0000 -178309.7580 -178309.7580 0.0000 17386.2230 -4418.7632 534946.2959 17386.2230 -4418.7632
ENERGY: 1000 174.3139 668.5259 2810.8385 0.0000 -206318.6558 24030.3066 34.9757 0.0000 0.0000 -178599.6952 0.0000 -178599.6952 -178599.6952 0.0000 17471.2681 -4391.1243 534946.2959 17471.2681 -4391.1243
TCL: Setting parameter constraintScaling to 0
TCL: Minimizing for 5000 steps
ETITLE: TS BOND ANGLE DIHED IMPRP ELECT VDW BOUNDARY MISC KINETIC TOTAL TEMP POTENTIAL TOTAL3 TEMPAVG PRESSURE GPRESSURE VOLUME PRESSAVG GPRESSAVG
ENERGY: 1000 174.3139 668.5259 2810.8385 0.0000 -206318.6558 24030.3066 0.0000 0.0000 0.0000 -178634.6710 0.0000 -178634.6710 -178634.6710 0.0000 17498.2119 -27307.9409 534946.2959 17498.2119 -27307.9409
ENERGY: 2000 167.2177 662.1891 2800.2553 0.0000 -214898.7770 27781.0463 0.0000 0.0000 0.0000 -183488.0686 0.0000 -183488.0686 -183488.0686 0.0000 19525.5045 -3301.1361 534946.2959 19525.5045 -3301.1361
ENERGY: 3000 172.8809 668.6993 2797.2494 0.0000 -217469.3326 28873.9337 0.0000 0.0000 0.0000 -184956.5693 0.0000 -184956.5693 -184956.5693 0.0000 20117.0984 -2946.4457 534946.2959 20117.0984 -2946.4457
ENERGY: 4000 166.7603 660.6049 2789.5952 0.0000 -218834.3861 29503.1867 0.0000 0.0000 0.0000 -185714.2390 0.0000 -185714.2390 -185714.2390 0.0000 20452.4261 -2755.4878 534946.2959 20452.4261 -2755.4878
ENERGY: 5000 165.0993 661.3955 2791.2574 0.0000 -219577.3809 29767.2961 0.0000 0.0000 0.0000 -186192.3326 0.0000 -186192.3326 -186192.3326 0.0000 20579.3674 -2710.5678 534946.2959 20579.3674 -2710.5678
ENERGY: 6000 164.8115 662.4845 2790.9775 0.0000 -220046.0671 29956.3676 0.0000 0.0000 0.0000 -186471.4260 0.0000 -186471.4260 -186471.4260 0.0000 20685.4001 -2663.7737 534946.2959 20685.4001 -2663.7737
