Info: SIMULATION PARAMETERS:
Info: TIMESTEP               1
Info: NUMBER OF STEPS        0
Info: STEPS PER CYCLE        10
Info: PERIODIC CELL BASIS 1  72.449 0 0
Info: PERIODIC CELL BASIS 2  0 93.247 0
Info: PERIODIC CELL BASIS 3  0 0 79.185
Info: PERIODIC CELL CENTER   -0.248 -0.156 -0.047
Info: WRAPPING WATERS AROUND PERIODIC BOUNDARIES ON OUTPUT.
Info: WRAPPING ALL CLUSTERS AROUND PERIODIC BOUNDARIES ON OUTPUT.
Info: FIRST LDB TIMESTEP     50
Info: LAST LDB TIMESTEP     -1
Info: HOM BACKGROUND SCALING 1
Info: PME BACKGROUND SCALING 1
Info: MIN ATOMS PER PATCH    40
Info: VELOCITY FILE          ../replicas/rep123/equilibration/eq1.vel
Info: CENTER OF MASS MOVING INITIALLY? NO
Info: DIELECTRIC             1
Info: EXCLUDE                SCALED ONE-FOUR
Info: 1-4 ELECTROSTATICS SCALED BY 0.833333
Info: MODIFIED 1-4 VDW PARAMETERS WILL BE USED
Info: DCD FILENAME           ../replicas/rep123/equilibration/eq2.dcd
Info: DCD FREQUENCY          5000
Info: DCD FIRST STEP         5000
Info: DCD FILE WILL CONTAIN UNIT CELL DATA
Info: XST FILENAME           ../replicas/rep123/equilibration/eq2.xst
Info: XST FREQUENCY          5000
Info: NO VELOCITY DCD OUTPUT
Info: NO FORCE DCD OUTPUT
Info: OUTPUT FILENAME        ../replicas/rep123/equilibration/eq2
Info: RESTART FILENAME       ../replicas/rep123/equilibration/eq2.restart
Info: RESTART FREQUENCY      5000
Info: BINARY RESTART FILES WILL BE USED
Info: SWITCHING ACTIVE
Info: SWITCHING ON           10
Info: SWITCHING OFF          12
Info: PAIRLIST DISTANCE      13.5
Info: PAIRLIST SHRINK RATE   0.01
Info: PAIRLIST GROW RATE     0.01
Info: PAIRLIST TRIGGER       0.3
Info: PAIRLISTS PER CYCLE    2
Info: PAIRLISTS ENABLED
Info: MARGIN                 0.48
Info: HYDROGEN GROUP CUTOFF  2.5
Info: PATCH DIMENSION        16.48
Info: ENERGY OUTPUT STEPS    500
Info: CROSSTERM ENERGY INCLUDED IN DIHEDRAL
Info: TIMING OUTPUT STEPS    5000
Info: PRESSURE OUTPUT STEPS  500
Info: HARMONIC CONSTRAINTS ACTIVE
Info: HARMONIC CONS EXP      2
Info: HARMONIC CONS SCALING  10
Info: LANGEVIN DYNAMICS ACTIVE
Info: LANGEVIN TEMPERATURE   300
Info: LANGEVIN USING BBK INTEGRATOR
Info: LANGEVIN DAMPING COEFFICIENT IS 5 INVERSE PS
Info: LANGEVIN DYNAMICS NOT APPLIED TO HYDROGENS
Info: BERENDSEN PRESSURE COUPLING ACTIVE
Info:     TARGET PRESSURE IS 1 BAR
Info:     COMPRESSIBILITY ESTIMATE IS 4.57e-05 BAR^(-1)
Info:     RELAXATION TIME IS 100 FS
Info:     APPLIED EVERY 2 STEPS
Info:     PRESSURE CONTROL IS GROUP-BASED
Info:       CELL FLUCTUATION IS ISOTROPIC
Info: PARTICLE MESH EWALD (PME) ACTIVE
Info: PME TOLERANCE               1e-06
Info: PME EWALD COEFFICIENT       0.257952
Info: PME INTERPOLATION ORDER     4
Info: PME GRID DIMENSIONS         80 96 80
Info: PME MAXIMUM GRID SPACING    1
Info: FULL ELECTROSTATIC EVALUATION FREQUENCY      2
Info: USING VERLET I (r-RESPA) MTS SCHEME.
Info: C1 SPLITTING OF LONG RANGE ELECTROSTATICS
Info: PLACING ATOMS IN PATCHES BY HYDROGEN GROUPS
Info: RIGID BONDS TO HYDROGEN : WATER
Info:         ERROR TOLERANCE : 1e-05
Info:          MAX ITERATIONS : 100
Info: RIGID WATER USING SETTLE ALGORITHM
Info: RANDOM NUMBER SEED     1503718747
Info: USE HYDROGEN BONDS?    NO
Info: Using AMBER format force field!
Info: AMBER PARM FILE        ../build/complex.top
Info: COORDINATE PDB         ../replicas/rep123/equilibration/eq1.coor
Info: Exclusions in PARM file will be ignored!
Info: SCNB (VDW SCALING)     2
Info: USING ARITHMETIC MEAN TO COMBINE L-J SIGMA PARAMETERS
Info: SUMMARY OF PARAMETERS:
Info: 71 BONDS
Info: 145 ANGLES
Info: 76 DIHEDRAL
Info: 0 IMPROPER
Info: 0 CROSSTERM
Info: 0 VDW
Info: 190 VDW_PAIRS
Info: 0 NBTHOLE_PAIRS
Info: STRUCTURE SUMMARY:
Info: 49394 ATOMS
Info: 49448 BONDS
Info: 8698 ANGLES
Info: 18780 DIHEDRALS
Info: 0 IMPROPERS
Info: 0 CROSSTERMS
Info: 0 EXCLUSIONS
Info: 2336 CONSTRAINTS
Info: 44667 RIGID BONDS
Info: 103515 DEGREES OF FREEDOM
Info: 17225 HYDROGEN GROUPS
Info: 4 ATOMS IN LARGEST HYDROGEN GROUP
Info: 17225 MIGRATION GROUPS
Info: 4 ATOMS IN LARGEST MIGRATION GROUP
Info: TOTAL MASS = 301478 amu
Info: TOTAL CHARGE = 1.00115e-05 e
Info: MASS DENSITY = 0.935846 g/cm^3
Info: ATOM DENSITY = 0.0923345 atoms/A^3
Info: ADDED 70656 IMPLICIT EXCLUSIONS
Info: NONBONDED TABLE R-SQUARED SPACING: 0.0625
Info: NONBONDED TABLE SIZE: 769 POINTS
Info: REMOVING COM VELOCITY -0.00777684 -0.00885559 0.00210196
TCL: Running for 5000 steps
ETITLE: TS BOND ANGLE DIHED IMPRP ELECT VDW BOUNDARY MISC KINETIC TOTAL TEMP POTENTIAL TOTAL3 TEMPAVG PRESSURE GPRESSURE VOLUME PRESSAVG GPRESSAVG
ENERGY: 0 403.3997 1202.6012 2904.1930 0.0000 -212921.6579 29687.1334 0.0000 0.0000 10045.5042 -168678.8265 97.6695 -178724.3307 -168669.2383 97.6695 -2359.9675 -2462.4198 534946.2959 -2359.9675 -2462.4198
ENERGY: 1000 1256.2626 1947.1409 3120.5197 0.0000 -193474.4098 26438.6627 760.6345 0.0000 24046.1708 -135905.0187 233.7938 -159951.1895 -135871.8529 218.2470 -3.0164 -33.8394 522499.6056 -11.2105 -11.6686
ENERGY: 2000 1411.6744 2145.4453 3115.3661 0.0000 -184018.6515 23140.2445 806.8027 0.0000 28116.2034 -125282.9152 273.3655 -153399.1185 -125244.4735 264.6367 -48.5955 -25.3127 515293.5353 -21.8992 -22.0624
ENERGY: 3000 1496.4863 2238.8529 3146.6938 0.0000 -179082.9694 21507.9954 803.3536 0.0000 29566.9142 -120322.6732 287.4704 -149889.5874 -120284.6365 284.6644 -7.5879 -47.9659 509179.2142 -14.2899 -14.2410
ENERGY: 4000 1577.6836 2280.3659 3147.5352 0.0000 -177274.5045 20895.2881 840.2144 0.0000 30213.4621 -118319.9551 293.7566 -148533.4172 -118281.1233 292.5060 0.1340 12.4924 508241.2886 9.0883 9.1577
ENERGY: 5000 1575.4451 2228.7949 3130.4438 0.0000 -176349.9336 20423.8012 775.3729 0.0000 30542.9118 -117673.1639 296.9597 -148216.0757 -117626.4403 296.5142 -49.0788 31.3371 504769.1696 -11.0535 -11.2364
TCL: Setting parameter constraintScaling to 5.0
TCL: Running for 5000 steps
ETITLE: TS BOND ANGLE DIHED IMPRP ELECT VDW BOUNDARY MISC KINETIC TOTAL TEMP POTENTIAL TOTAL3 TEMPAVG PRESSURE GPRESSURE VOLUME PRESSAVG GPRESSAVG
ENERGY: 5000 1575.4451 2228.7949 3130.4438 0.0000 -176349.9336 20423.8012 387.6865 0.0000 30540.8624 -118062.8998 296.9398 -148603.7622 -118018.1180 296.9398 -173.4586 -86.6037 504769.1696 -173.4586 -86.6037
ENERGY: 6000 1595.6385 2321.6750 3163.9132 0.0000 -176060.1352 20400.5340 658.4939 0.0000 30546.6463 -117373.2342 296.9960 -147919.8806 -117322.4000 298.6963 68.3363 62.9892 503699.5000 -8.1945 -8.1511
ENERGY: 7000 1604.7877 2324.2414 3161.3022 0.0000 -175816.6949 20322.9022 651.4476 0.0000 30938.6605 -116813.3532 300.8075 -147752.0138 -116760.9911 298.8147 -44.4379 -64.5654 503835.1559 -11.3845 -11.3450
ENERGY: 8000 1616.5342 2349.0329 3149.7173 0.0000 -175422.0353 20155.8526 650.1257 0.0000 30906.2536 -116594.5190 300.4924 -147500.7726 -116549.0242 299.8244 54.8605 48.6582 503549.2355 4.4503 4.5853
ENERGY: 9000 1669.9545 2340.5059 3169.0990 0.0000 -174775.5611 19790.2255 635.6281 0.0000 30750.6886 -116419.4595 298.9799 -147170.1481 -116381.2034 301.0442 1.3892 1.0292 500700.7105 -24.6670 -24.9458
ENERGY: 10000 1608.1602 2276.5700 3164.8756 0.0000 -175707.1176 20144.6271 631.9900 0.0000 30963.5321 -116917.3626 301.0493 -147880.8947 -116868.8336 299.8739 -82.1841 -7.5669 501262.5148 8.8530 9.1092
TCL: Setting parameter constraintScaling to 2.5
TCL: Running for 5000 steps
ETITLE: TS BOND ANGLE DIHED IMPRP ELECT VDW BOUNDARY MISC KINETIC TOTAL TEMP POTENTIAL TOTAL3 TEMPAVG PRESSURE GPRESSURE VOLUME PRESSAVG GPRESSAVG
ENERGY: 10000 1608.1602 2276.5700 3164.8756 0.0000 -175707.1176 20144.6271 315.9950 0.0000 30961.4918 -117235.3979 301.0294 -148196.8897 -117193.9405 301.0294 -151.3901 -68.6018 501262.5148 -151.3901 -68.6018
ENERGY: 11000 1657.9980 2408.5619 3154.4287 0.0000 -175416.4026 19960.0554 524.7730 0.0000 30805.0264 -116905.5591 299.5082 -147710.5855 -116869.4759 299.7712 -146.8030 -43.1859 501724.4998 -3.8040 -3.8480
ENERGY: 12000 1659.4007 2368.6269 3163.2395 0.0000 -175577.2858 20058.5126 521.1432 0.0000 31046.8868 -116759.4761 301.8597 -147806.3628 -116714.1867 301.4744 -100.8670 -28.7940 501267.5492 3.6707 3.3938
ENERGY: 13000 1623.2115 2378.9977 3209.1949 0.0000 -175859.7322 20135.0270 498.2730 0.0000 30885.1935 -117129.8346 300.2876 -148015.0281 -117079.3551 300.3766 -62.5311 6.0909 500403.7635 -3.3409 -3.4570
ENERGY: 14000 1651.5906 2322.7232 3170.4380 0.0000 -176136.3493 20338.2308 516.4748 0.0000 30946.5442 -117190.3478 300.8841 -148136.8921 -117150.1693 300.1061 50.5603 3.0537 499298.6079 0.4057 0.0581
ENERGY: 15000 1617.9355 2432.2506 3160.7793 0.0000 -175818.5349 20050.6839 529.0378 0.0000 30842.5811 -117185.2669 299.8733 -148027.8480 -117138.7316 300.1627 -13.6598 -1.1379 499245.9128 4.1853 3.3177
TCL: Setting parameter constraintScaling to 1.25
TCL: Running for 5000 steps
ETITLE: TS BOND ANGLE DIHED IMPRP ELECT VDW BOUNDARY MISC KINETIC TOTAL TEMP POTENTIAL TOTAL3 TEMPAVG PRESSURE GPRESSURE VOLUME PRESSAVG GPRESSAVG
ENERGY: 15000 1617.9355 2432.2506 3160.7793 0.0000 -175818.5349 20050.6839 264.5189 0.0000 30840.5405 -117451.8263 299.8535 -148292.3669 -117405.8124 299.8535 -78.7360 -70.1372 499245.9128 -78.7360 -70.1372
ENERGY: 16000 1595.9161 2378.6634 3181.7083 0.0000 -175612.2713 20063.3029 404.3573 0.0000 30682.3240 -117305.9993 298.3152 -147988.3233 -117253.3056 299.7713 -61.8936 18.7516 499697.4885 6.1734 6.7945
ENERGY: 17000 1607.3381 2350.6120 3186.8965 0.0000 -175813.6754 20061.1017 424.2606 0.0000 30861.2184 -117322.2482 300.0545 -148183.4666 -117279.4722 299.2217 -42.1936 28.0767 497945.4829 -15.6685 -16.1253
ENERGY: 18000 1636.5073 2349.4326 3195.9227 0.0000 -176050.2890 20324.2377 400.9137 0.0000 30681.9451 -117461.3299 298.3115 -148143.2750 -117422.6549 298.5525 -178.4256 -33.1543 499371.2380 5.1620 5.6339
ENERGY: 19000 1608.0972 2437.6107 3192.7054 0.0000 -176067.7108 20319.3687 422.8710 0.0000 30905.3993 -117181.6584 300.4841 -148087.0577 -117136.4638 298.8553 123.4463 87.3289 497909.7543 -11.3298 -11.3771
ENERGY: 20000 1627.7623 2346.9233 3182.8932 0.0000 -175282.2424 19947.0103 421.2187 0.0000 30863.3094 -116893.1253 300.0748 -147756.4346 -116849.0798 301.0486 -64.8237 -15.6309 499282.1752 11.8903 12.1159
TCL: Setting parameter constraintScaling to 0.625
TCL: Running for 5000 steps
ETITLE: TS BOND ANGLE DIHED IMPRP ELECT VDW BOUNDARY MISC KINETIC TOTAL TEMP POTENTIAL TOTAL3 TEMPAVG PRESSURE GPRESSURE VOLUME PRESSAVG GPRESSAVG
ENERGY: 20000 1627.7623 2346.9233 3182.8932 0.0000 -175282.2424 19947.0103 210.6093 0.0000 30861.2597 -117105.7842 300.0549 -147967.0440 -117061.0738 300.0549 -70.0543 -26.3402 499282.1752 -70.0543 -26.3402
ENERGY: 21000 1640.0064 2376.0919 3182.8720 0.0000 -175278.5959 20142.0617 318.2417 0.0000 30886.4892 -116732.8330 300.3002 -147619.3222 -116695.8440 300.9628 -216.2793 -52.7720 499652.7612 8.5682 9.0961
ENERGY: 22000 1596.6803 2402.4320 3170.1362 0.0000 -175309.0110 19963.3436 321.0638 0.0000 30887.0944 -116968.2608 300.3061 -147855.3552 -116926.0170 300.1397 -82.1713 -41.7080 500040.2924 -6.8917 -7.0096
ENERGY: 23000 1599.8604 2434.6402 3226.5757 0.0000 -175304.8941 20042.4254 334.2272 0.0000 30899.2231 -116767.9420 300.4240 -147667.1651 -116727.4519 301.4300 101.5102 75.5970 500804.3841 0.0931 0.2620
ENERGY: 24000 1653.7693 2388.7458 3177.9761 0.0000 -175692.2397 20099.4746 325.7769 0.0000 30730.7095 -117315.7876 298.7856 -148046.4971 -117262.6817 300.2276 19.2944 26.4427 498947.9190 -9.3234 -9.6461
ENERGY: 25000 1654.7311 2354.3151 3200.3707 0.0000 -175466.0718 19997.0711 341.5427 0.0000 30814.4296 -117103.6115 299.5996 -147918.0412 -117066.3566 300.5837 19.9231 16.6249 499605.6145 5.4688 5.8064
TCL: Setting parameter constraintScaling to 0.3125
TCL: Running for 5000 steps
ETITLE: TS BOND ANGLE DIHED IMPRP ELECT VDW BOUNDARY MISC KINETIC TOTAL TEMP POTENTIAL TOTAL3 TEMPAVG PRESSURE GPRESSURE VOLUME PRESSAVG GPRESSAVG
ENERGY: 25000 1654.7311 2354.3151 3200.3707 0.0000 -175466.0718 19997.0711 170.7713 0.0000 30812.3787 -117276.4338 299.5797 -148088.8125 -117232.0761 299.5797 -33.0520 -31.3456 499605.6145 -33.0520 -31.3456
ENERGY: 26000 1623.6363 2443.6837 3200.0452 0.0000 -175950.3318 19994.2696 237.9206 0.0000 30835.8157 -117614.9606 299.8075 -148450.7764 -117571.6365 299.5899 -105.1190 -105.3836 497682.0483 -13.5791 -13.9713
ENERGY: 27000 1644.0251 2404.4700 3215.2881 0.0000 -176146.5714 20223.0570 230.2607 0.0000 30659.6067 -117769.8638 298.0943 -148429.4705 -117727.0060 298.4866 -72.2778 -15.4334 499063.2051 6.1757 6.5872
ENERGY: 28000 1652.1597 2366.5979 3224.3759 0.0000 -175383.2350 19872.8279 246.7515 0.0000 30756.5854 -117263.9368 299.0372 -148020.5222 -117211.3545 300.9116 -25.5726 -63.2810 499171.1026 4.9029 5.0252
ENERGY: 29000 1624.7026 2424.9394 3211.8782 0.0000 -176224.7856 20340.3494 239.1999 0.0000 30676.1493 -117707.5667 298.2551 -148383.7161 -117683.6262 298.7959 35.2225 87.5815 500418.5882 11.0492 10.9484
ENERGY: 30000 1653.8602 2416.9964 3207.4656 0.0000 -175836.7324 19934.2236 258.2397 0.0000 30862.0882 -117503.8587 300.0630 -148365.9469 -117456.9293 299.8289 -137.9764 -36.4051 498241.0409 -5.0186 -4.9738
TCL: Setting parameter constraintScaling to 0.15625
TCL: Running for 5000 steps
ETITLE: TS BOND ANGLE DIHED IMPRP ELECT VDW BOUNDARY MISC KINETIC TOTAL TEMP POTENTIAL TOTAL3 TEMPAVG PRESSURE GPRESSURE VOLUME PRESSAVG GPRESSAVG
ENERGY: 30000 1653.8602 2416.9964 3207.4656 0.0000 -175836.7324 19934.2236 129.1198 0.0000 30860.0444 -117635.0224 300.0431 -148495.0667 -117591.1200 300.0431 -183.1003 -87.9548 498241.0409 -183.1003 -87.9548
ENERGY: 31000 1661.5875 2387.8346 3211.8174 0.0000 -176295.4424 20290.6823 183.9307 0.0000 30804.2636 -117755.3263 299.5008 -148559.5899 -117719.0866 298.0360 -68.7823 -17.9755 498189.5453 6.2302 6.3980
ENERGY: 32000 1702.3724 2437.7282 3227.0637 0.0000 -176440.0002 20125.2251 191.9488 0.0000 30895.4831 -117860.1790 300.3877 -148755.6621 -117810.3866 298.5645 0.5789 81.2337 495795.7069 -9.4721 -9.1965
ENERGY: 33000 1709.4818 2433.6984 3231.4359 0.0000 -175966.6280 20019.4881 209.1809 0.0000 30842.6870 -117520.6558 299.8743 -148363.3428 -117464.8893 300.0449 -38.5418 -81.6554 496887.0319 9.0812 8.7613
ENERGY: 34000 1668.9194 2423.0148 3201.2064 0.0000 -176008.8519 20151.0480 214.3629 0.0000 30991.0389 -117359.2614 301.3167 -148350.3003 -117316.3736 300.7323 -55.5225 -20.7660 497357.6675 -1.2063 -1.3399
ENERGY: 35000 1664.2134 2439.8209 3216.0507 0.0000 -175400.4905 19697.9894 211.7211 0.0000 30769.2533 -117401.4417 299.1604 -148170.6951 -117359.5271 300.6191 -59.9057 -17.9625 497663.7963 -6.8400 -6.3754
TCL: Setting parameter constraintScaling to 0.078125
TCL: Running for 5000 steps
ETITLE: TS BOND ANGLE DIHED IMPRP ELECT VDW BOUNDARY MISC KINETIC TOTAL TEMP POTENTIAL TOTAL3 TEMPAVG PRESSURE GPRESSURE VOLUME PRESSAVG GPRESSAVG
ENERGY: 35000 1664.2134 2439.8209 3216.0507 0.0000 -175400.4905 19697.9894 105.8605 0.0000 30767.2035 -117509.3521 299.1404 -148276.5556 -117463.9179 299.1404 -100.9033 -56.2031 497663.7963 -100.9033 -56.2031
ENERGY: 36000 1679.0570 2405.6163 3208.9876 0.0000 -175622.0289 19981.0875 150.6818 0.0000 30708.6421 -117487.9566 298.5711 -148196.5987 -117447.9321 299.7567 -27.3455 -84.0788 498915.5085 12.8531 13.0986
ENERGY: 37000 1668.2878 2513.3377 3194.1518 0.0000 -176102.1723 20157.3567 157.8847 0.0000 30709.0465 -117702.1070 298.5750 -148411.1535 -117648.6784 299.4948 26.9274 -3.4503 496633.5353 -17.1342 -17.5019
ENERGY: 38000 1704.7483 2441.6706 3198.3942 0.0000 -176017.8292 20225.0033 166.5173 0.0000 31023.2451 -117258.2505 301.6299 -148281.4956 -117220.9225 300.4958 51.1129 64.6863 498114.8559 11.8658 11.9573
ENERGY: 39000 1651.8733 2413.6146 3210.0890 0.0000 -176054.8157 20226.3794 169.3348 0.0000 31012.2931 -117371.2317 301.5234 -148383.5248 -117320.8116 300.3633 68.1185 42.4939 496602.0861 -9.0641 -9.4585
ENERGY: 40000 1641.0054 2400.1169 3197.9319 0.0000 -175672.2900 19988.0652 161.1010 0.0000 30868.9210 -117415.1485 300.1294 -148284.0695 -117374.9394 300.0846 -57.7431 -4.6986 497891.9583 10.2368 9.7375
TCL: Setting parameter constraintScaling to 0.0390625
TCL: Running for 5000 steps
ETITLE: TS BOND ANGLE DIHED IMPRP ELECT VDW BOUNDARY MISC KINETIC TOTAL TEMP POTENTIAL TOTAL3 TEMPAVG PRESSURE GPRESSURE VOLUME PRESSAVG GPRESSAVG
ENERGY: 40000 1641.0054 2400.1169 3197.9319 0.0000 -175672.2900 19988.0652 80.5505 0.0000 30866.8482 -117497.7718 300.1093 -148364.6201 -117456.1402 300.1093 -84.9042 -32.9707 497891.9583 -84.9042 -32.9707
ENERGY: 41000 1626.1590 2424.0451 3239.2293 0.0000 -175723.4849 19998.0403 109.9472 0.0000 30818.7758 -117507.2882 299.6419 -148326.0640 -117457.6890 300.4870 -7.7423 -35.2849 496468.3656 8.5052 8.7787
ENERGY: 42000 1629.7548 2490.6553 3193.7054 0.0000 -175380.1579 19791.6186 112.6296 0.0000 30695.8666 -117465.9276 298.4468 -148161.7942 -117417.5289 299.5728 -95.8873 -25.1058 497118.6920 -4.8495 -4.6042
ENERGY: 43000 1644.2034 2399.0546 3219.2784 0.0000 -175655.1669 20049.1495 121.2528 0.0000 31009.8820 -117212.3463 301.4999 -148222.2283 -117174.1395 300.7903 48.6805 12.6171 497005.1785 -0.3288 -0.6044
ENERGY: 44000 1652.2563 2429.5055 3183.3652 0.0000 -175816.3198 20121.5238 119.2958 0.0000 30766.8056 -117543.5676 299.1366 -148310.3732 -117497.5827 299.7500 71.2370 67.0596 497465.1660 16.4871 16.3090
ENERGY: 45000 1621.8134 2380.2059 3241.4386 0.0000 -175833.5833 20092.2400 123.2781 0.0000 30857.7079 -117516.8995 300.0204 -148374.6074 -117473.2400 299.3440 -18.1682 38.8652 498100.7726 7.5784 7.6058
TCL: Setting parameter constraintScaling to 0.01953125
TCL: Running for 5000 steps
ETITLE: TS BOND ANGLE DIHED IMPRP ELECT VDW BOUNDARY MISC KINETIC TOTAL TEMP POTENTIAL TOTAL3 TEMPAVG PRESSURE GPRESSURE VOLUME PRESSAVG GPRESSAVG
ENERGY: 45000 1621.8134 2380.2059 3241.4386 0.0000 -175833.5833 20092.2400 61.6390 0.0000 30855.6823 -117580.5641 300.0007 -148436.2464 -117537.6599 300.0007 -28.7557 19.9780 498100.7726 -28.7557 19.9780
ENERGY: 46000 1640.8789 2458.3593 3207.4765 0.0000 -175458.1278 19946.2483 69.6022 0.0000 30845.5085 -117290.0543 299.9018 -148135.5627 -117247.0159 300.0011 67.6599 20.4246 498422.4570 -1.8146 -1.9275
ENERGY: 47000 1644.9810 2371.8424 3258.6112 0.0000 -175476.5720 19934.7436 84.4595 0.0000 30643.7121 -117538.2223 297.9398 -148181.9344 -117491.5374 300.4020 66.9468 37.4652 497729.7189 4.3889 3.8498
ENERGY: 48000 1623.1438 2377.0724 3220.0637 0.0000 -175668.5302 20044.3420 80.8001 0.0000 30578.2545 -117744.8537 297.3033 -148323.1082 -117694.4009 299.3815 86.3858 22.9644 497757.6339 -7.4560 -7.3021
ENERGY: 49000 1644.0586 2427.3656 3233.9333 0.0000 -175790.1536 20078.4902 91.0620 0.0000 30781.5665 -117533.6774 299.2801 -148315.2439 -117494.5699 299.9677 20.7941 31.3047 497607.7720 0.2875 0.2767
ENERGY: 50000 1721.4297 2328.8652 3223.6871 0.0000 -175605.4183 19846.5107 90.5029 0.0000 30773.1579 -117621.2648 299.1983 -148394.4227 -117576.7360 301.0131 -119.8367 -60.4071 496285.6003 -13.7419 -13.3227
TCL: Setting parameter constraintScaling to 0
TCL: Running for 5000 steps
ETITLE: TS BOND ANGLE DIHED IMPRP ELECT VDW BOUNDARY MISC KINETIC TOTAL TEMP POTENTIAL TOTAL3 TEMPAVG PRESSURE GPRESSURE VOLUME PRESSAVG GPRESSAVG
ENERGY: 50000 1721.4297 2328.8652 3223.6871 0.0000 -175605.4183 19846.5107 0.0000 0.0000 30771.1091 -117713.8165 299.1784 -148484.9256 -117671.9648 299.1784 -157.6172 -93.5988 496285.6003 -157.6172 -93.5988
ENERGY: 51000 1657.0017 2425.4537 3218.7438 0.0000 -175841.3634 20165.3018 0.0000 0.0000 30815.5148 -117559.3476 299.6102 -148374.8624 -117515.7226 300.0882 -134.0840 -27.8625 497409.4243 7.0586 7.2420
ENERGY: 52000 1616.7606 2355.4110 3236.8077 0.0000 -175514.2383 19988.6048 0.0000 0.0000 30770.0468 -117546.6072 299.1681 -148316.6541 -117504.4906 300.3944 85.4528 58.7474 497135.2038 1.1411 1.4796
ENERGY: 53000 1659.1845 2429.7732 3181.8893 0.0000 -175893.2269 20122.4840 0.0000 0.0000 30794.1468 -117705.7492 299.4024 -148499.8959 -117661.8118 300.1314 -99.5941 -26.3509 497526.6267 -1.2547 -0.9196
ENERGY: 54000 1687.4631 2412.8862 3219.0461 0.0000 -175835.6514 19940.8735 0.0000 0.0000 30667.1937 -117908.1888 298.1681 -148575.3825 -117867.7644 298.9290 -155.8739 1.8049 497320.3807 -5.8145 -5.6045
ENERGY: 55000 1655.2123 2450.1406 3213.6044 0.0000 -175530.1616 20038.0252 0.0000 0.0000 30738.9250 -117434.2541 298.8655 -148173.1791 -117384.0830 299.7475 -32.6858 28.7288 497449.7233 -7.3968 -6.7312
