Info: SIMULATION PARAMETERS:
Info: TIMESTEP               2
Info: NUMBER OF STEPS        0
Info: STEPS PER CYCLE        10
Info: PERIODIC CELL BASIS 1  72.449 0 0
Info: PERIODIC CELL BASIS 2  0 93.247 0
Info: PERIODIC CELL BASIS 3  0 0 79.185
Info: PERIODIC CELL CENTER   -0.248 -0.156 -0.047
Info: WRAPPING WATERS AROUND PERIODIC BOUNDARIES ON OUTPUT.
Info: WRAPPING ALL CLUSTERS AROUND PERIODIC BOUNDARIES ON OUTPUT.
Info: FIRST LDB TIMESTEP     50
Info: LAST LDB TIMESTEP     -1
Info: HOM BACKGROUND SCALING 1
Info: PME BACKGROUND SCALING 1
Info: MIN ATOMS PER PATCH    40
Info: INITIAL TEMPERATURE    0
Info: CENTER OF MASS MOVING INITIALLY? NO
Info: DIELECTRIC             1
Info: EXCLUDE                SCALED ONE-FOUR
Info: 1-4 ELECTROSTATICS SCALED BY 0.833333
Info: MODIFIED 1-4 VDW PARAMETERS WILL BE USED
Info: NO DCD TRAJECTORY OUTPUT
Info: NO EXTENDED SYSTEM TRAJECTORY OUTPUT
Info: NO VELOCITY DCD OUTPUT
Info: NO FORCE DCD OUTPUT
Info: OUTPUT FILENAME        ../replicas/rep112/equilibration/eq0
Info: NO RESTART FILE
Info: SWITCHING ACTIVE
Info: SWITCHING ON           10
Info: SWITCHING OFF          12
Info: PAIRLIST DISTANCE      13.5
Info: PAIRLIST SHRINK RATE   0.01
Info: PAIRLIST GROW RATE     0.01
Info: PAIRLIST TRIGGER       0.3
Info: PAIRLISTS PER CYCLE    2
Info: PAIRLISTS ENABLED
Info: MARGIN                 0
Info: HYDROGEN GROUP CUTOFF  2.5
Info: PATCH DIMENSION        16
Info: ENERGY OUTPUT STEPS    500
Info: CROSSTERM ENERGY INCLUDED IN DIHEDRAL
Info: TIMING OUTPUT STEPS    5000
Info: PRESSURE OUTPUT STEPS  500
Info: HARMONIC CONSTRAINTS ACTIVE
Info: HARMONIC CONS EXP      2
Info: HARMONIC CONS SCALING  10
Info: CONJUGATE GRADIENT MINIMIZATION ACTIVE
Info: LINE MINIMIZATION GOAL = 0.001
Info: BABY STEP SIZE = 0.01
Info: TINY STEP SIZE = 1e-06
Info: PARTICLE MESH EWALD (PME) ACTIVE
Info: PME TOLERANCE               1e-06
Info: PME EWALD COEFFICIENT       0.257952
Info: PME INTERPOLATION ORDER     4
Info: PME GRID DIMENSIONS         80 96 80
Info: PME MAXIMUM GRID SPACING    1
Info: FULL ELECTROSTATIC EVALUATION FREQUENCY      2
Info: USING VERLET I (r-RESPA) MTS SCHEME.
Info: C1 SPLITTING OF LONG RANGE ELECTROSTATICS
Info: PLACING ATOMS IN PATCHES BY HYDROGEN GROUPS
Info: RIGID BONDS TO HYDROGEN : ALL
Info:         ERROR TOLERANCE : 1e-05
Info:          MAX ITERATIONS : 100
Info: RIGID WATER USING SETTLE ALGORITHM
Info: RANDOM NUMBER SEED     1503691733
Info: USE HYDROGEN BONDS?    NO
Info: Using AMBER format force field!
Info: AMBER PARM FILE        ../build/complex.top
Info: COORDINATE PDB         ../build/complex.pdb
Info: Exclusions in PARM file will be ignored!
Info: SCNB (VDW SCALING)     2
Info: USING ARITHMETIC MEAN TO COMBINE L-J SIGMA PARAMETERS
Info: SUMMARY OF PARAMETERS:
Info: 71 BONDS
Info: 145 ANGLES
Info: 76 DIHEDRAL
Info: 0 IMPROPER
Info: 0 CROSSTERM
Info: 0 VDW
Info: 190 VDW_PAIRS
Info: 0 NBTHOLE_PAIRS
Info: STRUCTURE SUMMARY:
Info: 49394 ATOMS
Info: 49448 BONDS
Info: 8698 ANGLES
Info: 18780 DIHEDRALS
Info: 0 IMPROPERS
Info: 0 CROSSTERMS
Info: 0 EXCLUSIONS
Info: 2336 CONSTRAINTS
Info: 47058 RIGID BONDS
Info: 101124 DEGREES OF FREEDOM
Info: 17225 HYDROGEN GROUPS
Info: 4 ATOMS IN LARGEST HYDROGEN GROUP
Info: 17225 MIGRATION GROUPS
Info: 4 ATOMS IN LARGEST MIGRATION GROUP
Info: TOTAL MASS = 301478 amu
Info: TOTAL CHARGE = 1.00115e-05 e
Info: MASS DENSITY = 0.935846 g/cm^3
Info: ATOM DENSITY = 0.0923345 atoms/A^3
Info: ADDED 70656 IMPLICIT EXCLUSIONS
Info: NONBONDED TABLE R-SQUARED SPACING: 0.0625
Info: NONBONDED TABLE SIZE: 769 POINTS
Info: REMOVING COM VELOCITY 0 0 0
TCL: Minimizing for 100 steps
ETITLE: TS BOND ANGLE DIHED IMPRP ELECT VDW BOUNDARY MISC KINETIC TOTAL TEMP POTENTIAL TOTAL3 TEMPAVG PRESSURE GPRESSURE VOLUME PRESSAVG GPRESSAVG
ENERGY: 0 155.4176 1012.2698 2855.7272 0.0000 -154496.7911 207729.2052 0.0468 0.0000 0.0000 57255.8755 0.0000 57255.8755 57255.8755 0.0000 116350.2532 86546.1670 534946.2959 116350.2532 86546.1670
ENERGY: 20 304.7556 935.7912 2893.4663 0.0000 -158672.9411 17936.6592 143.9454 0.0000 0.0000 -136458.3233 0.0000 -136458.3233 -136458.3233 0.0000 16523.9385 -239.4561 534946.2959 16523.9385 -239.4561
ENERGY: 40 198.7444 799.5728 2896.9273 0.0000 -162811.4527 16417.9538 221.3030 0.0000 0.0000 -142276.9515 0.0000 -142276.9515 -142276.9515 0.0000 15011.2704 -2135.4696 534946.2959 15011.2704 -2135.4696
ENERGY: 60 130.5283 715.3440 2898.2166 0.0000 -167496.1560 15446.7541 315.2796 0.0000 0.0000 -147990.0334 0.0000 -147990.0334 -147990.0334 0.0000 13793.8839 -3799.3983 534946.2959 13793.8839 -3799.3983
ENERGY: 80 431.2719 765.6306 2904.3786 0.0000 -169937.5251 15121.1529 372.0122 0.0000 0.0000 -150343.0790 0.0000 -150343.0790 -150343.0790 0.0000 13270.3317 -4577.2433 534946.2959 13270.3317 -4577.2433
ENERGY: 100 129.7150 708.0655 2904.2781 0.0000 -171050.0674 15018.6530 384.2000 0.0000 0.0000 -151905.1558 0.0000 -151905.1558 -151905.1558 0.0000 13092.9125 -4843.6323 534946.2959 13092.9125 -4843.6323
TCL: Setting parameter constraintScaling to 5.0
TCL: Minimizing for 100 steps
ETITLE: TS BOND ANGLE DIHED IMPRP ELECT VDW BOUNDARY MISC KINETIC TOTAL TEMP POTENTIAL TOTAL3 TEMPAVG PRESSURE GPRESSURE VOLUME PRESSAVG GPRESSAVG
ENERGY: 100 129.7150 708.0655 2904.2781 0.0000 -171050.0674 15018.6530 192.1000 0.0000 0.0000 -152097.2558 0.0000 -152097.2558 -152097.2558 0.0000 13703.5077 -22944.4551 534946.2959 13703.5077 -22944.4551
ENERGY: 120 118.6825 680.2877 2909.9066 0.0000 -172396.3173 14830.1203 259.9550 0.0000 0.0000 -153597.3653 0.0000 -153597.3653 -153597.3653 0.0000 13320.9467 -4756.3082 534946.2959 13320.9467 -4756.3082
ENERGY: 140 109.1488 671.1468 2912.0864 0.0000 -174830.2853 14716.1437 337.7314 0.0000 0.0000 -156084.0283 0.0000 -156084.0283 -156084.0283 0.0000 12908.9553 -5423.1525 534946.2959 12908.9553 -5423.1525
ENERGY: 160 125.8568 667.1495 2914.1927 0.0000 -175967.0043 14735.1324 362.9179 0.0000 0.0000 -157161.7550 0.0000 -157161.7550 -157161.7550 0.0000 12806.9002 -5644.3816 534946.2959 12806.9002 -5644.3816
ENERGY: 180 303.5163 659.6773 2917.2964 0.0000 -177408.6766 14815.0127 395.3821 0.0000 0.0000 -158317.7918 0.0000 -158317.7918 -158317.7918 0.0000 12699.3187 -5901.4335 534946.2959 12699.3187 -5901.4335
ENERGY: 200 109.2077 628.4738 2923.3590 0.0000 -179543.9611 15071.1748 441.8859 0.0000 0.0000 -160369.8600 0.0000 -160369.8600 -160369.8600 0.0000 12659.9891 -6155.8340 534946.2959 12659.9891 -6155.8340
TCL: Setting parameter constraintScaling to 2.5
TCL: Minimizing for 100 steps
ETITLE: TS BOND ANGLE DIHED IMPRP ELECT VDW BOUNDARY MISC KINETIC TOTAL TEMP POTENTIAL TOTAL3 TEMPAVG PRESSURE GPRESSURE VOLUME PRESSAVG GPRESSAVG
ENERGY: 200 109.2077 628.4738 2923.3590 0.0000 -179543.9611 15071.1748 220.9429 0.0000 0.0000 -160590.8030 0.0000 -160590.8030 -160590.8030 0.0000 13208.4156 -25274.9853 534946.2959 13208.4156 -25274.9853
ENERGY: 220 169.2438 639.7906 2924.9610 0.0000 -180453.9223 15113.9512 291.3193 0.0000 0.0000 -161314.6564 0.0000 -161314.6564 -161314.6564 0.0000 13002.3032 -5918.6835 534946.2959 13002.3032 -5918.6835
ENERGY: 240 251.7719 643.1579 2921.4034 0.0000 -181893.6756 15358.8174 339.5353 0.0000 0.0000 -162378.9896 0.0000 -162378.9896 -162378.9896 0.0000 12964.0567 -6111.4569 534946.2959 12964.0567 -6111.4569
ENERGY: 260 174.3267 639.0201 2923.9303 0.0000 -184178.1182 15906.8901 437.3850 0.0000 0.0000 -164096.5660 0.0000 -164096.5660 -164096.5660 0.0000 13008.8576 -6309.9526 534946.2959 13008.8576 -6309.9526
ENERGY: 280 149.2000 649.0245 2918.1890 0.0000 -184713.1601 16069.0044 427.5098 0.0000 0.0000 -164500.2324 0.0000 -164500.2324 -164500.2324 0.0000 13128.2721 -6264.3147 534946.2959 13128.2721 -6264.3147
ENERGY: 300 233.5847 694.3306 2927.8284 0.0000 -186445.4913 16634.2296 426.2404 0.0000 0.0000 -165529.2776 0.0000 -165529.2776 -165529.2776 0.0000 13384.2963 -6204.9907 534946.2959 13384.2963 -6204.9907
TCL: Setting parameter constraintScaling to 1.25
TCL: Minimizing for 100 steps
ETITLE: TS BOND ANGLE DIHED IMPRP ELECT VDW BOUNDARY MISC KINETIC TOTAL TEMP POTENTIAL TOTAL3 TEMPAVG PRESSURE GPRESSURE VOLUME PRESSAVG GPRESSAVG
ENERGY: 300 233.5847 694.3306 2927.8284 0.0000 -186445.4913 16634.2296 213.1202 0.0000 0.0000 -165742.3978 0.0000 -165742.3978 -165742.3978 0.0000 13794.9054 -26292.3656 534946.2959 13794.9054 -26292.3656
ENERGY: 320 167.0405 649.4843 2910.7903 0.0000 -186882.8236 16723.5921 245.5416 0.0000 0.0000 -166186.3748 0.0000 -166186.3748 -166186.3748 0.0000 13783.9534 -5847.1209 534946.2959 13783.9534 -5847.1209
ENERGY: 340 215.0389 688.5389 2917.8339 0.0000 -188481.8028 17161.5178 356.7375 0.0000 0.0000 -167142.1359 0.0000 -167142.1359 -167142.1359 0.0000 13726.7758 -6065.4371 534946.2959 13726.7758 -6065.4371
ENERGY: 360 154.7952 660.2094 2903.6288 0.0000 -188795.4031 17288.8693 342.0856 0.0000 0.0000 -167445.8148 0.0000 -167445.8148 -167445.8148 0.0000 13844.2655 -5998.7759 534946.2959 13844.2655 -5998.7759
ENERGY: 380 383.5201 702.1415 2911.6840 0.0000 -190529.4843 17933.1038 359.3056 0.0000 0.0000 -168239.7293 0.0000 -168239.7293 -168239.7293 0.0000 14118.7620 -5925.4851 534946.2959 14118.7620 -5925.4851
ENERGY: 400 193.9536 668.5928 2900.1103 0.0000 -192316.8652 18715.7916 399.0273 0.0000 0.0000 -169439.3894 0.0000 -169439.3894 -169439.3894 0.0000 14496.7426 -5763.4022 534946.2959 14496.7426 -5763.4022
TCL: Setting parameter constraintScaling to 0.625
TCL: Minimizing for 100 steps
ETITLE: TS BOND ANGLE DIHED IMPRP ELECT VDW BOUNDARY MISC KINETIC TOTAL TEMP POTENTIAL TOTAL3 TEMPAVG PRESSURE GPRESSURE VOLUME PRESSAVG GPRESSAVG
ENERGY: 400 193.9536 668.5928 2900.1103 0.0000 -192316.8652 18715.7916 199.5137 0.0000 0.0000 -169638.9031 0.0000 -169638.9031 -169638.9031 0.0000 14798.6421 -26680.5631 534946.2959 14798.6421 -26680.5631
ENERGY: 420 139.8786 623.4642 2893.5028 0.0000 -192529.4143 18743.1763 215.0381 0.0000 0.0000 -169914.3544 0.0000 -169914.3544 -169914.3544 0.0000 14764.1257 -5492.8430 534946.2959 14764.1257 -5492.8430
ENERGY: 440 382.5153 729.2904 2892.4256 0.0000 -193394.7489 18971.0564 272.9426 0.0000 0.0000 -170146.5185 0.0000 -170146.5185 -170146.5185 0.0000 14688.1040 -5652.7143 534946.2959 14688.1040 -5652.7143
ENERGY: 460 377.1016 743.4922 2891.4343 0.0000 -194510.0386 19369.2928 336.2362 0.0000 0.0000 -170792.4816 0.0000 -170792.4816 -170792.4816 0.0000 14797.5820 -5699.9463 534946.2959 14797.5820 -5699.9463
ENERGY: 480 227.6474 724.6632 2890.3839 0.0000 -194535.0515 19387.6114 306.1246 0.0000 0.0000 -170998.6209 0.0000 -170998.6209 -170998.6209 0.0000 14901.4104 -5595.2826 534946.2959 14901.4104 -5595.2826
ENERGY: 500 162.6706 650.6043 2889.0722 0.0000 -195076.6675 19665.9566 287.4669 0.0000 0.0000 -171420.8969 0.0000 -171420.8969 -171420.8969 0.0000 15143.7266 -5411.6836 534946.2959 15143.7266 -5411.6836
TCL: Setting parameter constraintScaling to 0.3125
TCL: Minimizing for 100 steps
ETITLE: TS BOND ANGLE DIHED IMPRP ELECT VDW BOUNDARY MISC KINETIC TOTAL TEMP POTENTIAL TOTAL3 TEMPAVG PRESSURE GPRESSURE VOLUME PRESSAVG GPRESSAVG
ENERGY: 500 162.6706 650.6043 2889.0722 0.0000 -195076.6675 19665.9566 143.7335 0.0000 0.0000 -171564.6304 0.0000 -171564.6304 -171564.6304 0.0000 15332.8545 -26790.2477 534946.2959 15332.8545 -26790.2477
ENERGY: 520 155.6786 654.7241 2874.3259 0.0000 -195437.1578 19728.8597 164.0448 0.0000 0.0000 -171859.5247 0.0000 -171859.5247 -171859.5247 0.0000 15278.1667 -5328.0402 534946.2959 15278.1667 -5328.0402
ENERGY: 540 202.8202 669.6576 2883.7400 0.0000 -195948.0535 19899.5399 191.7154 0.0000 0.0000 -172100.5803 0.0000 -172100.5803 -172100.5803 0.0000 15197.1532 -5409.6855 534946.2959 15197.1532 -5409.6855
ENERGY: 560 163.1476 667.6097 2873.5517 0.0000 -196117.1905 19951.9804 187.9342 0.0000 0.0000 -172272.9669 0.0000 -172272.9669 -172272.9669 0.0000 15329.4144 -5344.6495 534946.2959 15329.4144 -5344.6495
ENERGY: 580 155.3625 656.9682 2878.6128 0.0000 -196559.7157 20158.4375 186.3908 0.0000 0.0000 -172523.9439 0.0000 -172523.9439 -172523.9439 0.0000 15445.1903 -5266.6325 534946.2959 15445.1903 -5266.6325
ENERGY: 600 153.5145 660.4927 2882.0352 0.0000 -197641.2947 20626.6797 204.3941 0.0000 0.0000 -173114.1784 0.0000 -173114.1784 -173114.1784 0.0000 15694.2660 -5150.8256 534946.2959 15694.2660 -5150.8256
TCL: Setting parameter constraintScaling to 0.15625
TCL: Minimizing for 100 steps
ETITLE: TS BOND ANGLE DIHED IMPRP ELECT VDW BOUNDARY MISC KINETIC TOTAL TEMP POTENTIAL TOTAL3 TEMPAVG PRESSURE GPRESSURE VOLUME PRESSAVG GPRESSAVG
ENERGY: 600 153.5145 660.4927 2882.0352 0.0000 -197641.2947 20626.6797 102.1971 0.0000 0.0000 -173216.3755 0.0000 -173216.3755 -173216.3755 0.0000 15812.0975 -26915.1826 534946.2959 15812.0975 -26915.1826
ENERGY: 620 157.6555 649.6794 2860.9082 0.0000 -197943.0691 20646.7509 114.4469 0.0000 0.0000 -173513.6282 0.0000 -173513.6282 -173513.6282 0.0000 15756.8272 -5122.3489 534946.2959 15756.8272 -5122.3489
ENERGY: 640 223.0273 712.4062 2867.9281 0.0000 -198493.7460 20854.1460 131.0037 0.0000 0.0000 -173705.2347 0.0000 -173705.2347 -173705.2347 0.0000 15738.8872 -5196.2119 534946.2959 15738.8872 -5196.2119
ENERGY: 660 165.4185 666.6896 2858.2638 0.0000 -198501.8974 20836.8704 126.7943 0.0000 0.0000 -173847.8607 0.0000 -173847.8607 -173847.8607 0.0000 15805.3851 -5138.6457 534946.2959 15805.3851 -5138.6457
ENERGY: 680 168.1316 655.6584 2866.5212 0.0000 -198960.2256 21051.8743 125.0550 0.0000 0.0000 -174092.9851 0.0000 -174092.9851 -174092.9851 0.0000 15945.9964 -5035.6508 534946.2959 15945.9964 -5035.6508
ENERGY: 700 168.9409 681.2977 2876.3384 0.0000 -199591.8266 21349.4152 131.0167 0.0000 0.0000 -174384.8177 0.0000 -174384.8177 -174384.8177 0.0000 16147.8825 -4928.7503 534946.2959 16147.8825 -4928.7503
TCL: Setting parameter constraintScaling to 0.078125
TCL: Minimizing for 100 steps
ETITLE: TS BOND ANGLE DIHED IMPRP ELECT VDW BOUNDARY MISC KINETIC TOTAL TEMP POTENTIAL TOTAL3 TEMPAVG PRESSURE GPRESSURE VOLUME PRESSAVG GPRESSAVG
ENERGY: 700 168.9409 681.2977 2876.3384 0.0000 -199591.8266 21349.4152 65.5083 0.0000 0.0000 -174450.3260 0.0000 -174450.3260 -174450.3260 0.0000 16216.4375 -26976.1009 534946.2959 16216.4375 -26976.1009
ENERGY: 720 170.1411 650.9289 2846.5152 0.0000 -199824.4572 21334.8350 71.0792 0.0000 0.0000 -174750.9578 0.0000 -174750.9578 -174750.9578 0.0000 16148.9736 -4959.5621 534946.2959 16148.9736 -4959.5621
ENERGY: 740 243.0882 662.9414 2846.0734 0.0000 -200079.9198 21426.2679 75.4859 0.0000 0.0000 -174826.0630 0.0000 -174826.0630 -174826.0630 0.0000 16081.5569 -5028.0990 534946.2959 16081.5569 -5028.0990
ENERGY: 760 227.6616 712.0804 2847.3535 0.0000 -200652.4743 21634.5219 83.6104 0.0000 0.0000 -175147.2465 0.0000 -175147.2465 -175147.2465 0.0000 16189.0304 -5000.4280 534946.2959 16189.0304 -5000.4280
ENERGY: 780 169.3746 660.5918 2841.6288 0.0000 -200613.7468 21615.0363 81.9276 0.0000 0.0000 -175245.1878 0.0000 -175245.1878 -175245.1878 0.0000 16191.2915 -4993.6045 534946.2959 16191.2915 -4993.6045
ENERGY: 800 160.3382 654.2351 2843.4281 0.0000 -201023.3757 21792.5505 81.3662 0.0000 0.0000 -175491.4577 0.0000 -175491.4577 -175491.4577 0.0000 16386.1239 -4859.3048 534946.2959 16386.1239 -4859.3048
TCL: Setting parameter constraintScaling to 0.0390625
TCL: Minimizing for 100 steps
ETITLE: TS BOND ANGLE DIHED IMPRP ELECT VDW BOUNDARY MISC KINETIC TOTAL TEMP POTENTIAL TOTAL3 TEMPAVG PRESSURE GPRESSURE VOLUME PRESSAVG GPRESSAVG
ENERGY: 800 160.3382 654.2351 2843.4281 0.0000 -201023.3757 21792.5505 40.6831 0.0000 0.0000 -175532.1408 0.0000 -175532.1408 -175532.1408 0.0000 16424.7946 -27108.6329 534946.2959 16424.7946 -27108.6329
ENERGY: 820 263.0593 692.0692 2836.8104 0.0000 -201325.4913 21880.5837 43.7685 0.0000 0.0000 -175609.2001 0.0000 -175609.2001 -175609.2001 0.0000 16388.7328 -4895.0849 534946.2959 16388.7328 -4895.0849
ENERGY: 840 180.6202 679.7084 2836.6182 0.0000 -201810.4722 22080.5083 47.3178 0.0000 0.0000 -175985.6993 0.0000 -175985.6993 -175985.6993 0.0000 16450.6600 -4873.3660 534946.2959 16450.6600 -4873.3660
ENERGY: 860 170.5352 671.4138 2831.6712 0.0000 -202001.0477 22138.9464 47.2572 0.0000 0.0000 -176141.2240 0.0000 -176141.2240 -176141.2240 0.0000 16515.2678 -4843.2434 534946.2959 16515.2678 -4843.2434
ENERGY: 880 294.6935 673.8722 2838.3283 0.0000 -202388.3746 22327.9445 47.4989 0.0000 0.0000 -176206.0372 0.0000 -176206.0372 -176206.0372 0.0000 16646.3645 -4757.1275 534946.2959 16646.3645 -4757.1275
ENERGY: 900 159.3720 662.4715 2829.0115 0.0000 -202474.9498 22341.6454 48.6462 0.0000 0.0000 -176433.8033 0.0000 -176433.8033 -176433.8033 0.0000 16652.3838 -4769.0457 534946.2959 16652.3838 -4769.0457
TCL: Setting parameter constraintScaling to 0.01953125
TCL: Minimizing for 100 steps
ETITLE: TS BOND ANGLE DIHED IMPRP ELECT VDW BOUNDARY MISC KINETIC TOTAL TEMP POTENTIAL TOTAL3 TEMPAVG PRESSURE GPRESSURE VOLUME PRESSAVG GPRESSAVG
ENERGY: 900 159.3720 662.4715 2829.0115 0.0000 -202474.9498 22341.6454 24.3231 0.0000 0.0000 -176458.1264 0.0000 -176458.1264 -176458.1264 0.0000 16673.9613 -27209.9526 534946.2959 16673.9613 -27209.9526
ENERGY: 920 299.8782 715.5682 2824.4122 0.0000 -202834.2591 22487.3659 26.0132 0.0000 0.0000 -176481.0214 0.0000 -176481.0214 -176481.0214 0.0000 16693.4775 -4765.7329 534946.2959 16693.4775 -4765.7329
ENERGY: 940 179.6463 667.5049 2825.4158 0.0000 -203142.8019 22608.9538 27.0137 0.0000 0.0000 -176834.2674 0.0000 -176834.2674 -176834.2674 0.0000 16754.1740 -4730.6227 534946.2959 16754.1740 -4730.6227
ENERGY: 960 234.4939 709.7022 2827.9581 0.0000 -203535.8096 22773.4299 27.8075 0.0000 0.0000 -176962.4179 0.0000 -176962.4179 -176962.4179 0.0000 16848.6625 -4688.8556 534946.2959 16848.6625 -4688.8556
ENERGY: 980 235.3334 675.7540 2819.9066 0.0000 -203815.4914 22896.1055 28.2761 0.0000 0.0000 -177160.1158 0.0000 -177160.1158 -177160.1158 0.0000 16937.1736 -4640.7434 534946.2959 16937.1736 -4640.7434
ENERGY: 1000 178.7711 655.1388 2816.3671 0.0000 -204048.4563 22997.5216 28.8762 0.0000 0.0000 -177371.7814 0.0000 -177371.7814 -177371.7814 0.0000 16965.3442 -4621.6728 534946.2959 16965.3442 -4621.6728
TCL: Setting parameter constraintScaling to 0
TCL: Minimizing for 5000 steps
ETITLE: TS BOND ANGLE DIHED IMPRP ELECT VDW BOUNDARY MISC KINETIC TOTAL TEMP POTENTIAL TOTAL3 TEMPAVG PRESSURE GPRESSURE VOLUME PRESSAVG GPRESSAVG
ENERGY: 1000 178.7711 655.1388 2816.3671 0.0000 -204048.4563 22997.5216 0.0000 0.0000 0.0000 -177400.6576 0.0000 -177400.6576 -177400.6576 0.0000 16989.4574 -27269.7221 534946.2959 16989.4574 -27269.7221
ENERGY: 2000 171.4351 665.4109 2803.8429 0.0000 -214833.0599 27933.7551 0.0000 0.0000 0.0000 -183258.6159 0.0000 -183258.6159 -183258.6159 0.0000 19627.8336 -3182.2130 534946.2959 19627.8336 -3182.2130
ENERGY: 3000 167.4400 663.0698 2796.8052 0.0000 -217374.7378 28804.7622 0.0000 0.0000 0.0000 -184942.6607 0.0000 -184942.6607 -184942.6607 0.0000 20065.9106 -3023.8352 534946.2959 20065.9106 -3023.8352
ENERGY: 4000 165.5408 661.7991 2789.9343 0.0000 -218661.1416 29318.7035 0.0000 0.0000 0.0000 -185725.1639 0.0000 -185725.1639 -185725.1639 0.0000 20341.8338 -2882.7062 534946.2959 20341.8338 -2882.7062
ENERGY: 5000 176.5827 666.9811 2787.5687 0.0000 -219355.6207 29595.9011 0.0000 0.0000 0.0000 -186128.5870 0.0000 -186128.5870 -186128.5870 0.0000 20478.8492 -2807.4185 534946.2959 20478.8492 -2807.4185
ENERGY: 6000 166.7855 665.9796 2785.3183 0.0000 -219761.0088 29749.3583 0.0000 0.0000 0.0000 -186393.5671 0.0000 -186393.5671 -186393.5671 0.0000 20562.2332 -2758.2260 534946.2959 20562.2332 -2758.2260
