Info: SIMULATION PARAMETERS:
Info: TIMESTEP               2
Info: NUMBER OF STEPS        0
Info: STEPS PER CYCLE        10
Info: PERIODIC CELL BASIS 1  72.449 0 0
Info: PERIODIC CELL BASIS 2  0 93.247 0
Info: PERIODIC CELL BASIS 3  0 0 79.185
Info: PERIODIC CELL CENTER   -0.248 -0.156 -0.047
Info: WRAPPING WATERS AROUND PERIODIC BOUNDARIES ON OUTPUT.
Info: WRAPPING ALL CLUSTERS AROUND PERIODIC BOUNDARIES ON OUTPUT.
Info: FIRST LDB TIMESTEP     50
Info: LAST LDB TIMESTEP     -1
Info: HOM BACKGROUND SCALING 1
Info: PME BACKGROUND SCALING 1
Info: MIN ATOMS PER PATCH    40
Info: INITIAL TEMPERATURE    0
Info: CENTER OF MASS MOVING INITIALLY? NO
Info: DIELECTRIC             1
Info: EXCLUDE                SCALED ONE-FOUR
Info: 1-4 ELECTROSTATICS SCALED BY 0.833333
Info: MODIFIED 1-4 VDW PARAMETERS WILL BE USED
Info: NO DCD TRAJECTORY OUTPUT
Info: NO EXTENDED SYSTEM TRAJECTORY OUTPUT
Info: NO VELOCITY DCD OUTPUT
Info: NO FORCE DCD OUTPUT
Info: OUTPUT FILENAME        ../replicas/rep54/equilibration/eq0
Info: NO RESTART FILE
Info: SWITCHING ACTIVE
Info: SWITCHING ON           10
Info: SWITCHING OFF          12
Info: PAIRLIST DISTANCE      13.5
Info: PAIRLIST SHRINK RATE   0.01
Info: PAIRLIST GROW RATE     0.01
Info: PAIRLIST TRIGGER       0.3
Info: PAIRLISTS PER CYCLE    2
Info: PAIRLISTS ENABLED
Info: MARGIN                 0
Info: HYDROGEN GROUP CUTOFF  2.5
Info: PATCH DIMENSION        16
Info: ENERGY OUTPUT STEPS    500
Info: CROSSTERM ENERGY INCLUDED IN DIHEDRAL
Info: TIMING OUTPUT STEPS    5000
Info: PRESSURE OUTPUT STEPS  500
Info: HARMONIC CONSTRAINTS ACTIVE
Info: HARMONIC CONS EXP      2
Info: HARMONIC CONS SCALING  10
Info: CONJUGATE GRADIENT MINIMIZATION ACTIVE
Info: LINE MINIMIZATION GOAL = 0.001
Info: BABY STEP SIZE = 0.01
Info: TINY STEP SIZE = 1e-06
Info: PARTICLE MESH EWALD (PME) ACTIVE
Info: PME TOLERANCE               1e-06
Info: PME EWALD COEFFICIENT       0.257952
Info: PME INTERPOLATION ORDER     4
Info: PME GRID DIMENSIONS         80 96 80
Info: PME MAXIMUM GRID SPACING    1
Info: FULL ELECTROSTATIC EVALUATION FREQUENCY      2
Info: USING VERLET I (r-RESPA) MTS SCHEME.
Info: C1 SPLITTING OF LONG RANGE ELECTROSTATICS
Info: PLACING ATOMS IN PATCHES BY HYDROGEN GROUPS
Info: RIGID BONDS TO HYDROGEN : ALL
Info:         ERROR TOLERANCE : 1e-05
Info:          MAX ITERATIONS : 100
Info: RIGID WATER USING SETTLE ALGORITHM
Info: RANDOM NUMBER SEED     1503690772
Info: USE HYDROGEN BONDS?    NO
Info: Using AMBER format force field!
Info: AMBER PARM FILE        ../build/complex.top
Info: COORDINATE PDB         ../build/complex.pdb
Info: Exclusions in PARM file will be ignored!
Info: SCNB (VDW SCALING)     2
Info: USING ARITHMETIC MEAN TO COMBINE L-J SIGMA PARAMETERS
Info: SUMMARY OF PARAMETERS:
Info: 71 BONDS
Info: 145 ANGLES
Info: 76 DIHEDRAL
Info: 0 IMPROPER
Info: 0 CROSSTERM
Info: 0 VDW
Info: 190 VDW_PAIRS
Info: 0 NBTHOLE_PAIRS
Info: STRUCTURE SUMMARY:
Info: 49394 ATOMS
Info: 49448 BONDS
Info: 8698 ANGLES
Info: 18780 DIHEDRALS
Info: 0 IMPROPERS
Info: 0 CROSSTERMS
Info: 0 EXCLUSIONS
Info: 2336 CONSTRAINTS
Info: 47058 RIGID BONDS
Info: 101124 DEGREES OF FREEDOM
Info: 17225 HYDROGEN GROUPS
Info: 4 ATOMS IN LARGEST HYDROGEN GROUP
Info: 17225 MIGRATION GROUPS
Info: 4 ATOMS IN LARGEST MIGRATION GROUP
Info: TOTAL MASS = 301478 amu
Info: TOTAL CHARGE = 1.00115e-05 e
Info: MASS DENSITY = 0.935846 g/cm^3
Info: ATOM DENSITY = 0.0923345 atoms/A^3
Info: ADDED 70656 IMPLICIT EXCLUSIONS
Info: NONBONDED TABLE R-SQUARED SPACING: 0.0625
Info: NONBONDED TABLE SIZE: 769 POINTS
Info: REMOVING COM VELOCITY 0 0 0
TCL: Minimizing for 100 steps
ETITLE: TS BOND ANGLE DIHED IMPRP ELECT VDW BOUNDARY MISC KINETIC TOTAL TEMP POTENTIAL TOTAL3 TEMPAVG PRESSURE GPRESSURE VOLUME PRESSAVG GPRESSAVG
ENERGY: 0 155.4176 1012.2698 2855.7272 0.0000 -154496.7910 207729.2052 0.0468 0.0000 0.0000 57255.8756 0.0000 57255.8756 57255.8756 0.0000 116350.2532 86546.1670 534946.2959 116350.2532 86546.1670
ENERGY: 20 304.7546 935.7911 2893.4663 0.0000 -158672.9403 17936.6596 143.9454 0.0000 0.0000 -136458.3233 0.0000 -136458.3233 -136458.3233 0.0000 16523.9389 -239.4556 534946.2959 16523.9389 -239.4556
ENERGY: 40 198.7430 799.5725 2896.9273 0.0000 -162811.4536 16417.9536 221.3030 0.0000 0.0000 -142276.9542 0.0000 -142276.9542 -142276.9542 0.0000 15011.2702 -2135.4699 534946.2959 15011.2702 -2135.4699
ENERGY: 60 130.5284 715.3440 2898.2166 0.0000 -167496.1555 15446.7542 315.2796 0.0000 0.0000 -147990.0328 0.0000 -147990.0328 -147990.0328 0.0000 13793.8840 -3799.3982 534946.2959 13793.8840 -3799.3982
ENERGY: 80 431.2742 765.6310 2904.3784 0.0000 -169937.5255 15121.1528 372.0121 0.0000 0.0000 -150343.0770 0.0000 -150343.0770 -150343.0770 0.0000 13270.3317 -4577.2437 534946.2959 13270.3317 -4577.2437
ENERGY: 100 129.7151 708.0654 2904.2780 0.0000 -171050.0670 15018.6532 384.2000 0.0000 0.0000 -151905.1553 0.0000 -151905.1553 -151905.1553 0.0000 13092.9126 -4843.6322 534946.2959 13092.9126 -4843.6322
TCL: Setting parameter constraintScaling to 5.0
TCL: Minimizing for 100 steps
ETITLE: TS BOND ANGLE DIHED IMPRP ELECT VDW BOUNDARY MISC KINETIC TOTAL TEMP POTENTIAL TOTAL3 TEMPAVG PRESSURE GPRESSURE VOLUME PRESSAVG GPRESSAVG
ENERGY: 100 129.7151 708.0654 2904.2780 0.0000 -171050.0670 15018.6532 192.1000 0.0000 0.0000 -152097.2553 0.0000 -152097.2553 -152097.2553 0.0000 13703.5078 -22944.4549 534946.2959 13703.5078 -22944.4549
ENERGY: 120 118.6822 680.2877 2909.9066 0.0000 -172396.3165 14830.1204 259.9550 0.0000 0.0000 -153597.3647 0.0000 -153597.3647 -153597.3647 0.0000 13320.9469 -4756.3080 534946.2959 13320.9469 -4756.3080
ENERGY: 140 109.1491 671.1471 2912.0863 0.0000 -174830.2681 14716.1439 337.7308 0.0000 0.0000 -156084.0109 0.0000 -156084.0109 -156084.0109 0.0000 12908.9576 -5423.1485 534946.2959 12908.9576 -5423.1485
ENERGY: 160 125.8542 667.1492 2914.1927 0.0000 -175967.0100 14735.1327 362.9179 0.0000 0.0000 -157161.7633 0.0000 -157161.7633 -157161.7633 0.0000 12806.8999 -5643.7785 534946.2959 12806.8999 -5643.7785
ENERGY: 180 303.5213 659.6772 2917.2963 0.0000 -177408.6427 14815.0096 395.3813 0.0000 0.0000 -158317.7569 0.0000 -158317.7569 -158317.7569 0.0000 12699.3186 -5900.8646 534946.2959 12699.3186 -5900.8646
ENERGY: 200 109.2113 628.4818 2923.3599 0.0000 -179544.2406 15071.2216 441.8933 0.0000 0.0000 -160370.0726 0.0000 -160370.0726 -160370.0726 0.0000 12659.9890 -6151.0082 534946.2959 12659.9890 -6151.0082
TCL: Setting parameter constraintScaling to 2.5
TCL: Minimizing for 100 steps
ETITLE: TS BOND ANGLE DIHED IMPRP ELECT VDW BOUNDARY MISC KINETIC TOTAL TEMP POTENTIAL TOTAL3 TEMPAVG PRESSURE GPRESSURE VOLUME PRESSAVG GPRESSAVG
ENERGY: 200 109.2113 628.4818 2923.3599 0.0000 -179544.2406 15071.2216 220.9467 0.0000 0.0000 -160591.0193 0.0000 -160591.0193 -160591.0193 0.0000 13208.4207 -25270.1870 534946.2959 13208.4207 -25270.1870
ENERGY: 220 275.1691 652.0992 2925.2583 0.0000 -180396.0817 15108.9252 287.9894 0.0000 0.0000 -161146.6406 0.0000 -161146.6406 -161146.6406 0.0000 12999.9227 -5910.4883 534946.2959 12999.9227 -5910.4883
ENERGY: 240 144.4486 629.0040 2922.0858 0.0000 -181649.8437 15308.6887 331.4947 0.0000 0.0000 -162314.1218 0.0000 -162314.1218 -162314.1218 0.0000 12968.7688 -6071.6961 534946.2959 12968.7688 -6071.6961
ENERGY: 260 238.8724 648.3707 2922.1995 0.0000 -183614.8576 15754.2289 410.2691 0.0000 0.0000 -163640.9170 0.0000 -163640.9170 -163640.9170 0.0000 12997.8336 -6261.7182 534946.2959 12997.8336 -6261.7182
ENERGY: 280 122.3562 649.6335 2918.8943 0.0000 -184731.2735 16074.5104 431.7804 0.0000 0.0000 -164534.0988 0.0000 -164534.0988 -164534.0988 0.0000 13123.5231 -6267.7737 534946.2959 13123.5231 -6267.7737
ENERGY: 300 228.6610 690.4508 2927.5876 0.0000 -186455.4750 16638.4193 425.1660 0.0000 0.0000 -165545.1904 0.0000 -165545.1904 -165545.1904 0.0000 13389.5666 -6195.7622 534946.2959 13389.5666 -6195.7622
TCL: Setting parameter constraintScaling to 1.25
TCL: Minimizing for 100 steps
ETITLE: TS BOND ANGLE DIHED IMPRP ELECT VDW BOUNDARY MISC KINETIC TOTAL TEMP POTENTIAL TOTAL3 TEMPAVG PRESSURE GPRESSURE VOLUME PRESSAVG GPRESSAVG
ENERGY: 300 228.6610 690.4508 2927.5876 0.0000 -186455.4750 16638.4193 212.5830 0.0000 0.0000 -165757.7734 0.0000 -165757.7734 -165757.7734 0.0000 13800.0230 -26284.9160 534946.2959 13800.0230 -26284.9160
ENERGY: 320 169.3072 647.6846 2911.1488 0.0000 -186880.5672 16722.6155 244.9742 0.0000 0.0000 -166184.8369 0.0000 -166184.8369 -166184.8369 0.0000 13784.3302 -5841.9098 534946.2959 13784.3302 -5841.9098
ENERGY: 340 234.4254 715.7813 2919.8633 0.0000 -188990.8741 17329.2575 403.9797 0.0000 0.0000 -167387.5669 0.0000 -167387.5669 -167387.5669 0.0000 13712.5796 -6129.7529 534946.2959 13712.5796 -6129.7529
ENERGY: 360 180.3616 667.9827 2903.8797 0.0000 -189436.6453 17515.7169 360.6729 0.0000 0.0000 -167808.0316 0.0000 -167808.0316 -167808.0316 0.0000 13930.6675 -5977.9325 534946.2959 13930.6675 -5977.9325
ENERGY: 380 148.1840 650.7745 2915.0250 0.0000 -190137.1328 17809.5657 336.4395 0.0000 0.0000 -168277.1440 0.0000 -168277.1440 -168277.1440 0.0000 14140.7229 -5856.7585 534946.2959 14140.7229 -5856.7585
ENERGY: 400 194.6261 675.2901 2914.8700 0.0000 -192192.4659 18693.8386 356.9112 0.0000 0.0000 -169356.9300 0.0000 -169356.9300 -169356.9300 0.0000 14589.4024 -5663.3178 534946.2959 14589.4024 -5663.3178
TCL: Setting parameter constraintScaling to 0.625
TCL: Minimizing for 100 steps
ETITLE: TS BOND ANGLE DIHED IMPRP ELECT VDW BOUNDARY MISC KINETIC TOTAL TEMP POTENTIAL TOTAL3 TEMPAVG PRESSURE GPRESSURE VOLUME PRESSAVG GPRESSAVG
ENERGY: 400 194.6261 675.2901 2914.8700 0.0000 -192192.4659 18693.8386 178.4556 0.0000 0.0000 -169535.3856 0.0000 -169535.3856 -169535.3856 0.0000 14880.7235 -26566.5551 534946.2959 14880.7235 -26566.5551
ENERGY: 420 187.9179 659.3761 2887.6758 0.0000 -192696.2250 18757.1731 225.3986 0.0000 0.0000 -169978.6834 0.0000 -169978.6834 -169978.6834 0.0000 14762.5252 -5531.1151 534946.2959 14762.5252 -5531.1151
ENERGY: 440 177.0600 690.6012 2894.1291 0.0000 -193214.8215 18894.1697 276.2518 0.0000 0.0000 -170282.6096 0.0000 -170282.6096 -170282.6096 0.0000 14679.3538 -5651.3355 534946.2959 14679.3538 -5651.3355
ENERGY: 460 175.5955 677.5569 2887.5845 0.0000 -193684.2834 19048.5631 295.5778 0.0000 0.0000 -170599.4057 0.0000 -170599.4057 -170599.4057 0.0000 14722.4985 -5669.3567 534946.2959 14722.4985 -5669.3567
ENERGY: 480 153.2112 640.9508 2887.1992 0.0000 -194120.1197 19258.8348 268.9077 0.0000 0.0000 -170911.0160 0.0000 -170911.0160 -170911.0160 0.0000 14911.5536 -5517.9128 534946.2959 14911.5536 -5517.9128
ENERGY: 500 160.8478 682.3421 2918.5124 0.0000 -195200.0743 19775.6986 270.1933 0.0000 0.0000 -171392.4801 0.0000 -171392.4801 -171392.4801 0.0000 15270.7437 -5299.4468 534946.2959 15270.7437 -5299.4468
TCL: Setting parameter constraintScaling to 0.3125
TCL: Minimizing for 100 steps
ETITLE: TS BOND ANGLE DIHED IMPRP ELECT VDW BOUNDARY MISC KINETIC TOTAL TEMP POTENTIAL TOTAL3 TEMPAVG PRESSURE GPRESSURE VOLUME PRESSAVG GPRESSAVG
ENERGY: 500 160.8478 682.3421 2918.5124 0.0000 -195200.0743 19775.6986 135.0967 0.0000 0.0000 -171527.5767 0.0000 -171527.5767 -171527.5767 0.0000 15457.2157 -26692.1064 534946.2959 15457.2157 -26692.1064
ENERGY: 520 167.2641 641.6189 2873.5407 0.0000 -195557.3622 19785.0913 161.5943 0.0000 0.0000 -171928.2528 0.0000 -171928.2528 -171928.2528 0.0000 15317.8029 -5281.7893 534946.2959 15317.8029 -5281.7893
ENERGY: 540 182.3796 689.7596 2884.3687 0.0000 -196208.0461 19982.9353 199.3510 0.0000 0.0000 -172269.2519 0.0000 -172269.2519 -172269.2519 0.0000 15268.4395 -5399.6011 534946.2959 15268.4395 -5399.6011
ENERGY: 560 304.7900 729.9133 2872.8834 0.0000 -196574.3106 20155.7894 187.4789 0.0000 0.0000 -172323.4556 0.0000 -172323.4556 -172323.4556 0.0000 15453.3921 -5271.2093 534946.2959 15453.3921 -5271.2093
ENERGY: 580 146.4130 659.1497 2893.6780 0.0000 -197039.0251 20371.3319 187.2341 0.0000 0.0000 -172781.2184 0.0000 -172781.2184 -172781.2184 0.0000 15611.0011 -5162.4238 534946.2959 15611.0011 -5162.4238
ENERGY: 600 148.5573 648.1635 2873.0144 0.0000 -198194.3282 20813.5486 216.6258 0.0000 0.0000 -173494.4186 0.0000 -173494.4186 -173494.4186 0.0000 15778.0827 -5132.5647 534946.2959 15778.0827 -5132.5647
TCL: Setting parameter constraintScaling to 0.15625
TCL: Minimizing for 100 steps
ETITLE: TS BOND ANGLE DIHED IMPRP ELECT VDW BOUNDARY MISC KINETIC TOTAL TEMP POTENTIAL TOTAL3 TEMPAVG PRESSURE GPRESSURE VOLUME PRESSAVG GPRESSAVG
ENERGY: 600 148.5573 648.1635 2873.0144 0.0000 -198194.3281 20813.5486 108.3129 0.0000 0.0000 -173602.7315 0.0000 -173602.7315 -173602.7315 0.0000 15899.3192 -26958.7020 534946.2959 15899.3192 -26958.7020
ENERGY: 620 162.8849 648.9379 2856.0685 0.0000 -198590.4889 20898.6156 121.7528 0.0000 0.0000 -173902.2291 0.0000 -173902.2291 -173902.2291 0.0000 15863.6482 -5085.8154 534946.2959 15863.6482 -5085.8154
ENERGY: 640 158.9384 658.1807 2854.5974 0.0000 -199023.8430 21045.1043 131.2679 0.0000 0.0000 -174175.7543 0.0000 -174175.7543 -174175.7543 0.0000 15906.7811 -5092.5987 534946.2959 15906.7811 -5092.5987
ENERGY: 660 172.2144 664.8614 2857.0597 0.0000 -199523.7067 21237.5512 133.3034 0.0000 0.0000 -174458.7166 0.0000 -174458.7166 -174458.7166 0.0000 16037.4550 -5022.6655 534946.2959 16037.4550 -5022.6655
ENERGY: 680 178.0429 665.7220 2853.6088 0.0000 -200539.7123 21640.0694 146.7690 0.0000 0.0000 -175055.5002 0.0000 -175055.5002 -175055.5002 0.0000 16200.8278 -4972.9383 534946.2959 16200.8278 -4972.9383
ENERGY: 700 177.6698 660.0332 2836.3835 0.0000 -201870.9660 22230.8030 175.7653 0.0000 0.0000 -175790.3112 0.0000 -175790.3112 -175790.3112 0.0000 16463.3675 -4865.9401 534946.2959 16463.3675 -4865.9401
TCL: Setting parameter constraintScaling to 0.078125
TCL: Minimizing for 100 steps
ETITLE: TS BOND ANGLE DIHED IMPRP ELECT VDW BOUNDARY MISC KINETIC TOTAL TEMP POTENTIAL TOTAL3 TEMPAVG PRESSURE GPRESSURE VOLUME PRESSAVG GPRESSAVG
ENERGY: 700 177.6698 660.0332 2836.3835 0.0000 -201870.9660 22230.8030 87.8827 0.0000 0.0000 -175878.1939 0.0000 -175878.1939 -175878.1939 0.0000 16542.4352 -27193.6259 534946.2959 16542.4352 -27193.6259
ENERGY: 720 264.3192 664.2379 2834.9174 0.0000 -202243.6560 22344.3146 90.0794 0.0000 0.0000 -176045.7875 0.0000 -176045.7875 -176045.7875 0.0000 16612.6672 -4768.8512 534946.2959 16612.6672 -4768.8512
ENERGY: 740 167.8514 644.7044 2830.8628 0.0000 -202561.2280 22445.2822 93.3042 0.0000 0.0000 -176379.2229 0.0000 -176379.2229 -176379.2229 0.0000 16649.5373 -4759.7044 534946.2959 16649.5373 -4759.7044
ENERGY: 760 162.6954 645.8130 2828.1701 0.0000 -202840.8657 22539.4905 96.3405 0.0000 0.0000 -176568.3561 0.0000 -176568.3561 -176568.3561 0.0000 16686.3833 -4756.9828 534946.2959 16686.3833 -4756.9828
ENERGY: 780 413.9083 757.7119 2829.4739 0.0000 -203575.8435 22869.3450 101.9009 0.0000 0.0000 -176603.5034 0.0000 -176603.5034 -176603.5034 0.0000 16821.5052 -4700.6662 534946.2959 16821.5052 -4700.6662
ENERGY: 800 176.0422 662.6569 2820.8991 0.0000 -204051.0171 23081.4629 106.2413 0.0000 0.0000 -177203.7148 0.0000 -177203.7148 -177203.7148 0.0000 16985.5573 -4607.0355 534946.2959 16985.5573 -4607.0355
TCL: Setting parameter constraintScaling to 0.0390625
TCL: Minimizing for 100 steps
ETITLE: TS BOND ANGLE DIHED IMPRP ELECT VDW BOUNDARY MISC KINETIC TOTAL TEMP POTENTIAL TOTAL3 TEMPAVG PRESSURE GPRESSURE VOLUME PRESSAVG GPRESSAVG
ENERGY: 800 176.0422 662.6569 2820.8991 0.0000 -204051.0171 23081.4629 53.1206 0.0000 0.0000 -177256.8355 0.0000 -177256.8355 -177256.8355 0.0000 17030.3954 -27225.4099 534946.2959 17030.3954 -27225.4099
ENERGY: 820 212.2778 659.9520 2819.5728 0.0000 -204163.8275 23099.0834 54.0243 0.0000 0.0000 -177318.9172 0.0000 -177318.9172 -177318.9172 0.0000 17035.7893 -4570.5093 534946.2959 17035.7893 -4570.5093
ENERGY: 840 164.7675 651.7859 2816.5253 0.0000 -204395.7845 23192.6991 55.5007 0.0000 0.0000 -177514.5060 0.0000 -177514.5060 -177514.5060 0.0000 17057.2962 -4569.3459 534946.2959 17057.2962 -4569.3459
ENERGY: 860 205.6176 671.4134 2821.2557 0.0000 -204658.5724 23298.0149 57.2648 0.0000 0.0000 -177605.0060 0.0000 -177605.0060 -177605.0060 0.0000 17066.7955 -4572.6328 534946.2959 17066.7955 -4572.6328
ENERGY: 880 196.3568 677.2896 2814.5375 0.0000 -204904.3106 23404.6928 58.3470 0.0000 0.0000 -177753.0870 0.0000 -177753.0870 -177753.0870 0.0000 17202.3458 -4501.4392 534946.2959 17202.3458 -4501.4392
ENERGY: 900 177.5114 650.9391 2817.0406 0.0000 -205138.8107 23523.8215 59.6269 0.0000 0.0000 -177909.8712 0.0000 -177909.8712 -177909.8712 0.0000 17211.6146 -4486.7859 534946.2959 17211.6146 -4486.7859
TCL: Setting parameter constraintScaling to 0.01953125
TCL: Minimizing for 100 steps
ETITLE: TS BOND ANGLE DIHED IMPRP ELECT VDW BOUNDARY MISC KINETIC TOTAL TEMP POTENTIAL TOTAL3 TEMPAVG PRESSURE GPRESSURE VOLUME PRESSAVG GPRESSAVG
ENERGY: 900 177.5114 650.9391 2817.0406 0.0000 -205138.8107 23523.8215 29.8135 0.0000 0.0000 -177939.6847 0.0000 -177939.6847 -177939.6847 0.0000 17235.8410 -27280.1434 534946.2959 17235.8410 -27280.1434
ENERGY: 920 222.8546 657.0265 2814.0267 0.0000 -205309.0583 23574.4035 30.5447 0.0000 0.0000 -178010.2024 0.0000 -178010.2024 -178010.2024 0.0000 17256.6449 -4473.4957 534946.2959 17256.6449 -4473.4957
ENERGY: 940 175.6738 666.2677 2811.9933 0.0000 -205555.9787 23680.1219 31.4335 0.0000 0.0000 -178190.4885 0.0000 -178190.4885 -178190.4885 0.0000 17345.0265 -4430.1818 534946.2959 17345.0265 -4430.1818
ENERGY: 960 163.9368 651.1297 2810.5465 0.0000 -205614.2665 23703.3013 31.6622 0.0000 0.0000 -178253.6900 0.0000 -178253.6900 -178253.6900 0.0000 17346.9311 -4423.1080 534946.2959 17346.9311 -4423.1080
ENERGY: 980 163.9379 650.4129 2809.0926 0.0000 -205790.4476 23778.1371 32.2535 0.0000 0.0000 -178356.6135 0.0000 -178356.6135 -178356.6135 0.0000 17385.6136 -4405.6888 534946.2959 17385.6136 -4405.6888
ENERGY: 1000 163.1326 658.3905 2807.1112 0.0000 -206271.8910 23993.6296 33.9342 0.0000 0.0000 -178615.6929 0.0000 -178615.6929 -178615.6929 0.0000 17498.3111 -4351.9968 534946.2959 17498.3111 -4351.9968
TCL: Setting parameter constraintScaling to 0
TCL: Minimizing for 5000 steps
ETITLE: TS BOND ANGLE DIHED IMPRP ELECT VDW BOUNDARY MISC KINETIC TOTAL TEMP POTENTIAL TOTAL3 TEMPAVG PRESSURE GPRESSURE VOLUME PRESSAVG GPRESSAVG
ENERGY: 1000 163.1326 658.3905 2807.1112 0.0000 -206271.8910 23993.6296 0.0000 0.0000 0.0000 -178649.6271 0.0000 -178649.6271 -178649.6271 0.0000 17524.6452 -27260.0468 534946.2959 17524.6452 -27260.0468
ENERGY: 2000 167.3865 659.0487 2801.5384 0.0000 -214900.0481 27849.8577 0.0000 0.0000 0.0000 -183422.2168 0.0000 -183422.2168 -183422.2168 0.0000 19567.5178 -3249.1611 534946.2959 19567.5178 -3249.1611
ENERGY: 3000 172.1311 666.4257 2797.8171 0.0000 -217446.9524 28854.6616 0.0000 0.0000 0.0000 -184955.9170 0.0000 -184955.9170 -184955.9170 0.0000 20102.5496 -2975.8800 534946.2959 20102.5496 -2975.8800
ENERGY: 4000 165.5357 661.9703 2789.8402 0.0000 -218786.0538 29407.5043 0.0000 0.0000 0.0000 -185761.2033 0.0000 -185761.2033 -185761.2033 0.0000 20385.6305 -2839.0260 534946.2959 20385.6305 -2839.0260
ENERGY: 5000 166.2973 663.6281 2789.6136 0.0000 -219359.7059 29577.3304 0.0000 0.0000 0.0000 -186162.8365 0.0000 -186162.8365 -186162.8365 0.0000 20474.7747 -2812.4877 534946.2959 20474.7747 -2812.4877
ENERGY: 6000 166.7215 663.6830 2791.4354 0.0000 -219783.1111 29781.9996 0.0000 0.0000 0.0000 -186379.2715 0.0000 -186379.2715 -186379.2715 0.0000 20579.7921 -2744.2936 534946.2959 20579.7921 -2744.2936
