Info: SIMULATION PARAMETERS:
Info: TIMESTEP               1
Info: NUMBER OF STEPS        0
Info: STEPS PER CYCLE        10
Info: PERIODIC CELL BASIS 1  72.449 0 0
Info: PERIODIC CELL BASIS 2  0 93.247 0
Info: PERIODIC CELL BASIS 3  0 0 79.185
Info: PERIODIC CELL CENTER   -0.248 -0.156 -0.047
Info: WRAPPING WATERS AROUND PERIODIC BOUNDARIES ON OUTPUT.
Info: WRAPPING ALL CLUSTERS AROUND PERIODIC BOUNDARIES ON OUTPUT.
Info: FIRST LDB TIMESTEP     50
Info: LAST LDB TIMESTEP     -1
Info: HOM BACKGROUND SCALING 1
Info: PME BACKGROUND SCALING 1
Info: MIN ATOMS PER PATCH    40
Info: VELOCITY FILE          ../replicas/rep34/equilibration/eq1.vel
Info: CENTER OF MASS MOVING INITIALLY? NO
Info: DIELECTRIC             1
Info: EXCLUDE                SCALED ONE-FOUR
Info: 1-4 ELECTROSTATICS SCALED BY 0.833333
Info: MODIFIED 1-4 VDW PARAMETERS WILL BE USED
Info: DCD FILENAME           ../replicas/rep34/equilibration/eq2.dcd
Info: DCD FREQUENCY          5000
Info: DCD FIRST STEP         5000
Info: DCD FILE WILL CONTAIN UNIT CELL DATA
Info: XST FILENAME           ../replicas/rep34/equilibration/eq2.xst
Info: XST FREQUENCY          5000
Info: NO VELOCITY DCD OUTPUT
Info: NO FORCE DCD OUTPUT
Info: OUTPUT FILENAME        ../replicas/rep34/equilibration/eq2
Info: RESTART FILENAME       ../replicas/rep34/equilibration/eq2.restart
Info: RESTART FREQUENCY      5000
Info: BINARY RESTART FILES WILL BE USED
Info: SWITCHING ACTIVE
Info: SWITCHING ON           10
Info: SWITCHING OFF          12
Info: PAIRLIST DISTANCE      13.5
Info: PAIRLIST SHRINK RATE   0.01
Info: PAIRLIST GROW RATE     0.01
Info: PAIRLIST TRIGGER       0.3
Info: PAIRLISTS PER CYCLE    2
Info: PAIRLISTS ENABLED
Info: MARGIN                 0.48
Info: HYDROGEN GROUP CUTOFF  2.5
Info: PATCH DIMENSION        16.48
Info: ENERGY OUTPUT STEPS    500
Info: CROSSTERM ENERGY INCLUDED IN DIHEDRAL
Info: TIMING OUTPUT STEPS    5000
Info: PRESSURE OUTPUT STEPS  500
Info: HARMONIC CONSTRAINTS ACTIVE
Info: HARMONIC CONS EXP      2
Info: HARMONIC CONS SCALING  10
Info: LANGEVIN DYNAMICS ACTIVE
Info: LANGEVIN TEMPERATURE   300
Info: LANGEVIN USING BBK INTEGRATOR
Info: LANGEVIN DAMPING COEFFICIENT IS 5 INVERSE PS
Info: LANGEVIN DYNAMICS NOT APPLIED TO HYDROGENS
Info: BERENDSEN PRESSURE COUPLING ACTIVE
Info:     TARGET PRESSURE IS 1 BAR
Info:     COMPRESSIBILITY ESTIMATE IS 4.57e-05 BAR^(-1)
Info:     RELAXATION TIME IS 100 FS
Info:     APPLIED EVERY 2 STEPS
Info:     PRESSURE CONTROL IS GROUP-BASED
Info:       CELL FLUCTUATION IS ISOTROPIC
Info: PARTICLE MESH EWALD (PME) ACTIVE
Info: PME TOLERANCE               1e-06
Info: PME EWALD COEFFICIENT       0.257952
Info: PME INTERPOLATION ORDER     4
Info: PME GRID DIMENSIONS         80 96 80
Info: PME MAXIMUM GRID SPACING    1
Info: FULL ELECTROSTATIC EVALUATION FREQUENCY      2
Info: USING VERLET I (r-RESPA) MTS SCHEME.
Info: C1 SPLITTING OF LONG RANGE ELECTROSTATICS
Info: PLACING ATOMS IN PATCHES BY HYDROGEN GROUPS
Info: RIGID BONDS TO HYDROGEN : WATER
Info:         ERROR TOLERANCE : 1e-05
Info:          MAX ITERATIONS : 100
Info: RIGID WATER USING SETTLE ALGORITHM
Info: RANDOM NUMBER SEED     1503709181
Info: USE HYDROGEN BONDS?    NO
Info: Using AMBER format force field!
Info: AMBER PARM FILE        ../build/complex.top
Info: COORDINATE PDB         ../replicas/rep34/equilibration/eq1.coor
Info: Exclusions in PARM file will be ignored!
Info: SCNB (VDW SCALING)     2
Info: USING ARITHMETIC MEAN TO COMBINE L-J SIGMA PARAMETERS
Info: SUMMARY OF PARAMETERS:
Info: 71 BONDS
Info: 145 ANGLES
Info: 76 DIHEDRAL
Info: 0 IMPROPER
Info: 0 CROSSTERM
Info: 0 VDW
Info: 190 VDW_PAIRS
Info: 0 NBTHOLE_PAIRS
Info: STRUCTURE SUMMARY:
Info: 49394 ATOMS
Info: 49448 BONDS
Info: 8698 ANGLES
Info: 18780 DIHEDRALS
Info: 0 IMPROPERS
Info: 0 CROSSTERMS
Info: 0 EXCLUSIONS
Info: 2336 CONSTRAINTS
Info: 44667 RIGID BONDS
Info: 103515 DEGREES OF FREEDOM
Info: 17225 HYDROGEN GROUPS
Info: 4 ATOMS IN LARGEST HYDROGEN GROUP
Info: 17225 MIGRATION GROUPS
Info: 4 ATOMS IN LARGEST MIGRATION GROUP
Info: TOTAL MASS = 301478 amu
Info: TOTAL CHARGE = 1.00115e-05 e
Info: MASS DENSITY = 0.935846 g/cm^3
Info: ATOM DENSITY = 0.0923345 atoms/A^3
Info: ADDED 70656 IMPLICIT EXCLUSIONS
Info: NONBONDED TABLE R-SQUARED SPACING: 0.0625
Info: NONBONDED TABLE SIZE: 769 POINTS
Info: REMOVING COM VELOCITY 0.0139012 0.0141637 0.0258537
TCL: Running for 5000 steps
ETITLE: TS BOND ANGLE DIHED IMPRP ELECT VDW BOUNDARY MISC KINETIC TOTAL TEMP POTENTIAL TOTAL3 TEMPAVG PRESSURE GPRESSURE VOLUME PRESSAVG GPRESSAVG
ENERGY: 0 395.3284 1198.2507 2913.1400 0.0000 -212913.4450 29779.4589 0.0000 0.0000 10028.3456 -168598.9215 97.5026 -178627.2671 -168589.4344 97.5026 -2332.7850 -2436.1976 534946.2959 -2332.7850 -2436.1976
ENERGY: 1000 1224.6780 2036.0740 3124.6632 0.0000 -193515.8362 26379.6206 752.1951 0.0000 24026.4196 -135972.1856 233.6018 -159998.6052 -135937.0405 218.2027 4.1910 -15.2667 523100.6384 -1.8694 -2.2831
ENERGY: 2000 1489.6865 2140.6063 3149.7042 0.0000 -184064.1029 23281.3432 811.0107 0.0000 27964.3686 -125227.3834 271.8893 -153191.7520 -125186.1877 264.7474 -190.3768 -75.9121 514607.3093 -32.5708 -32.1393
ENERGY: 3000 1531.6702 2211.6737 3134.9269 0.0000 -179144.4214 21599.6272 787.4074 0.0000 29612.8339 -120266.2820 287.9168 -149879.1159 -120214.0487 284.1099 -117.6186 -39.9442 510710.7323 -10.9718 -11.0352
ENERGY: 4000 1549.4976 2255.0815 3132.7481 0.0000 -176662.0209 20700.2700 771.6591 0.0000 30186.5213 -118066.2431 293.4946 -148252.7645 -118022.3242 293.5057 -121.4855 -5.7835 508202.0320 1.1281 1.5899
ENERGY: 5000 1553.2434 2265.6722 3120.0035 0.0000 -175558.5894 20228.5085 819.3132 0.0000 30499.7307 -117072.1179 296.5399 -147571.8485 -117022.5462 297.2905 17.3990 -0.0746 507188.9714 5.1043 4.8562
TCL: Setting parameter constraintScaling to 5.0
TCL: Running for 5000 steps
ETITLE: TS BOND ANGLE DIHED IMPRP ELECT VDW BOUNDARY MISC KINETIC TOTAL TEMP POTENTIAL TOTAL3 TEMPAVG PRESSURE GPRESSURE VOLUME PRESSAVG GPRESSAVG
ENERGY: 5000 1553.2434 2265.6722 3120.0035 0.0000 -175558.5894 20228.5085 409.6566 0.0000 30497.6855 -117483.8196 296.5200 -147981.5051 -117441.8455 296.5200 -65.7211 -97.0278 507188.9714 -65.7211 -97.0278
ENERGY: 6000 1593.8770 2332.6039 3137.4417 0.0000 -176004.3660 20519.3283 645.3835 0.0000 30745.4215 -117030.3100 298.9287 -147775.7315 -116997.7997 298.5244 -63.3819 -34.8652 504301.4975 -21.2057 -21.1776
ENERGY: 7000 1563.7660 2357.0372 3147.1651 0.0000 -175462.3203 20143.7025 624.3250 0.0000 30914.4054 -116711.9192 300.5716 -147626.3246 -116672.8564 298.6556 -67.3452 -27.1876 503225.7601 -9.9452 -10.2436
ENERGY: 8000 1630.7921 2326.7255 3145.2699 0.0000 -175790.7584 20278.5839 614.3065 0.0000 30672.2053 -117122.8751 298.2168 -147795.0805 -117070.6526 298.8646 114.0286 61.5870 502220.6816 -3.2076 -3.4125
ENERGY: 9000 1600.2960 2355.2127 3126.6280 0.0000 -175601.8096 20186.5174 629.0367 0.0000 30986.8621 -116717.2567 301.2761 -147704.1188 -116677.4712 301.0034 -53.7684 -21.5030 501958.6852 5.3635 5.3690
ENERGY: 10000 1560.6785 2271.2817 3165.6160 0.0000 -175195.9617 19903.9645 614.8814 0.0000 30547.7832 -117131.7565 297.0071 -147679.5397 -117079.9183 299.3114 -82.2361 5.0077 501909.5457 -3.0181 -2.9861
TCL: Setting parameter constraintScaling to 2.5
TCL: Running for 5000 steps
ETITLE: TS BOND ANGLE DIHED IMPRP ELECT VDW BOUNDARY MISC KINETIC TOTAL TEMP POTENTIAL TOTAL3 TEMPAVG PRESSURE GPRESSURE VOLUME PRESSAVG GPRESSAVG
ENERGY: 10000 1560.6785 2271.2817 3165.6160 0.0000 -175195.9617 19903.9645 307.4407 0.0000 30545.7586 -117441.2217 296.9874 -147986.9804 -117392.3663 296.9874 -188.6798 -93.5746 501909.5457 -188.6798 -93.5746
ENERGY: 11000 1649.3238 2366.6947 3164.5222 0.0000 -175764.3278 20212.6761 513.5844 0.0000 30944.6878 -116912.8389 300.8661 -147857.5266 -116865.1167 299.0834 -44.7052 37.9755 501451.3039 3.8435 3.4551
ENERGY: 12000 1607.6552 2348.8073 3195.1756 0.0000 -175535.2450 19990.1440 498.1075 0.0000 30958.9965 -116936.3590 301.0052 -147895.3555 -116891.8365 299.6004 -118.8225 47.3641 500263.4478 1.6396 1.7531
ENERGY: 13000 1654.0743 2289.4970 3164.4446 0.0000 -175072.1183 19712.6385 490.6057 0.0000 30875.9001 -116884.9581 300.1973 -147760.8582 -116837.9145 300.0139 -54.0816 -30.1974 499857.6266 -2.9460 -2.9839
ENERGY: 14000 1551.1555 2279.4180 3141.6555 0.0000 -175440.0086 19810.8435 514.9869 0.0000 30751.7180 -117390.2312 298.9899 -148141.9492 -117349.0304 299.9963 -9.7635 -8.5434 500666.5501 0.6683 0.6420
ENERGY: 15000 1618.5450 2360.6803 3177.6374 0.0000 -175879.1516 20077.5309 516.0578 0.0000 30714.3136 -117414.3865 298.6262 -148128.7001 -117376.1830 298.4757 -51.9896 9.0391 499433.0872 -3.2411 -3.1269
TCL: Setting parameter constraintScaling to 1.25
TCL: Running for 5000 steps
ETITLE: TS BOND ANGLE DIHED IMPRP ELECT VDW BOUNDARY MISC KINETIC TOTAL TEMP POTENTIAL TOTAL3 TEMPAVG PRESSURE GPRESSURE VOLUME PRESSAVG GPRESSAVG
ENERGY: 15000 1618.5450 2360.6803 3177.6374 0.0000 -175879.1516 20077.5309 258.0289 0.0000 30712.2664 -117674.4627 298.6063 -148386.7290 -117631.6770 298.6063 -116.9677 -48.8513 499433.0872 -116.9677 -48.8513
ENERGY: 16000 1617.8706 2385.2409 3164.4549 0.0000 -175474.5951 19931.2766 384.0967 0.0000 30733.3964 -117258.2590 298.8117 -147991.6554 -117204.0318 298.3948 -68.5573 -19.5577 498505.8547 1.5834 1.2121
ENERGY: 17000 1623.4815 2338.8000 3184.6175 0.0000 -175642.8053 20052.4485 376.1253 0.0000 30705.0847 -117362.2478 298.5365 -148067.3325 -117318.1363 299.1296 -100.8600 -47.7373 498068.2247 -0.0833 0.0430
ENERGY: 18000 1596.7346 2330.6155 3169.0397 0.0000 -175578.7171 19888.9750 380.4143 0.0000 30888.1872 -117324.7508 300.3167 -148212.9380 -117285.9587 299.3606 16.7702 54.6447 498392.5648 12.8837 13.4535
ENERGY: 19000 1596.4063 2333.1701 3208.3017 0.0000 -175665.2622 19909.5950 412.8924 0.0000 30881.1321 -117323.7645 300.2481 -148204.8967 -117269.1006 299.1043 -65.1321 -56.6604 498195.3881 -1.3173 -1.4375
ENERGY: 20000 1620.8805 2326.2414 3200.1790 0.0000 -175684.2628 20097.3028 407.5014 0.0000 30840.4513 -117191.7064 299.8526 -148032.1578 -117136.6743 300.3807 -49.6355 -8.3367 498296.3719 -6.8178 -7.2437
TCL: Setting parameter constraintScaling to 0.625
TCL: Running for 5000 steps
ETITLE: TS BOND ANGLE DIHED IMPRP ELECT VDW BOUNDARY MISC KINETIC TOTAL TEMP POTENTIAL TOTAL3 TEMPAVG PRESSURE GPRESSURE VOLUME PRESSAVG GPRESSAVG
ENERGY: 20000 1620.8805 2326.2414 3200.1790 0.0000 -175684.2628 20097.3028 203.7507 0.0000 30838.4071 -117397.5014 299.8327 -148235.9085 -117354.0473 299.8327 -78.8172 -42.7656 498296.3719 -78.8172 -42.7656
ENERGY: 21000 1641.7630 2329.5788 3144.3499 0.0000 -175825.3891 20100.9653 314.8696 0.0000 31049.9576 -117243.9048 301.8896 -148293.8624 -117200.2315 298.9732 -63.2085 -25.8025 498870.9692 3.6217 4.0864
ENERGY: 22000 1558.2515 2409.4096 3208.5854 0.0000 -175473.5929 19917.9720 320.9585 0.0000 30765.9055 -117292.5104 299.1278 -148058.4159 -117248.1242 299.2137 43.0549 30.2710 496501.4541 -20.6227 -20.7444
ENERGY: 23000 1598.1380 2336.4893 3131.0827 0.0000 -175658.4415 19955.1425 332.8863 0.0000 30741.5679 -117563.1348 298.8912 -148304.7027 -117517.2433 298.8578 -16.9335 8.8050 497262.4108 -8.1568 -8.3561
ENERGY: 24000 1633.5791 2397.1546 3190.0667 0.0000 -176393.9143 20341.6069 307.1996 0.0000 30777.8874 -117746.4200 299.2443 -148524.3074 -117706.5454 299.9939 21.4095 19.7804 496297.3820 -10.3064 -9.9556
ENERGY: 25000 1635.5323 2391.3716 3196.6664 0.0000 -176314.6215 20341.1747 309.4995 0.0000 30699.7301 -117740.6468 298.4844 -148440.3769 -117702.4181 298.4246 1.6970 2.8315 498187.4049 7.2708 6.9303
TCL: Setting parameter constraintScaling to 0.3125
TCL: Running for 5000 steps
ETITLE: TS BOND ANGLE DIHED IMPRP ELECT VDW BOUNDARY MISC KINETIC TOTAL TEMP POTENTIAL TOTAL3 TEMPAVG PRESSURE GPRESSURE VOLUME PRESSAVG GPRESSAVG
ENERGY: 25000 1635.5323 2391.3716 3196.6664 0.0000 -176314.6215 20341.1747 154.7498 0.0000 30697.6904 -117897.4363 298.4646 -148595.1267 -117855.0187 298.4646 -10.5143 -5.9625 498187.4049 -10.5143 -5.9625
ENERGY: 26000 1653.7746 2383.7856 3204.0068 0.0000 -176164.6233 20136.1044 237.9071 0.0000 30980.1723 -117568.8725 301.2111 -148549.0448 -117537.9698 300.0051 -103.9428 -65.4634 497465.9913 5.7259 5.6671
ENERGY: 27000 1650.7324 2454.4900 3214.0748 0.0000 -176582.5887 20405.6460 251.8145 0.0000 30735.2074 -117870.6236 298.8293 -148605.8310 -117826.5961 297.9855 -99.0505 -16.7359 498371.8607 10.4295 10.1832
ENERGY: 28000 1651.2270 2396.3258 3183.8691 0.0000 -176515.4189 20422.3320 246.5413 0.0000 30888.9905 -117726.1332 300.3245 -148615.1236 -117691.0776 298.5373 18.3857 15.7487 497813.5640 -3.6785 -3.7611
ENERGY: 29000 1620.2692 2348.2594 3211.9111 0.0000 -175995.2784 19951.9681 251.6542 0.0000 30835.0799 -117776.1364 299.8004 -148611.2163 -117733.6525 299.3985 -28.6989 -47.9119 498374.0839 1.0971 0.7388
ENERGY: 30000 1685.1809 2479.1461 3188.7095 0.0000 -176086.7331 20145.6511 240.6944 0.0000 30973.2862 -117374.0648 301.1441 -148347.3510 -117324.5256 299.4920 -50.0338 -82.7832 497948.8695 7.8468 7.6534
TCL: Setting parameter constraintScaling to 0.15625
TCL: Running for 5000 steps
ETITLE: TS BOND ANGLE DIHED IMPRP ELECT VDW BOUNDARY MISC KINETIC TOTAL TEMP POTENTIAL TOTAL3 TEMPAVG PRESSURE GPRESSURE VOLUME PRESSAVG GPRESSAVG
ENERGY: 30000 1685.1809 2479.1461 3188.7095 0.0000 -176086.7331 20145.6511 120.3472 0.0000 30971.2890 -117496.4092 301.1247 -148467.6982 -117454.8568 301.1247 -56.6697 -100.9373 497948.8695 -56.6697 -100.9373
ENERGY: 31000 1675.6386 2413.2929 3239.8759 0.0000 -175886.0889 20092.6145 189.5552 0.0000 30773.0439 -117502.0678 299.1972 -148275.1118 -117447.2792 299.5790 -109.0729 -57.6539 497919.0784 3.1540 3.3075
ENERGY: 32000 1669.4555 2399.4754 3214.4866 0.0000 -176059.6768 20108.7184 182.2026 0.0000 30679.9582 -117805.3802 298.2922 -148485.3384 -117753.6775 300.2284 -134.6239 -76.4643 497050.9434 -12.7698 -12.8963
ENERGY: 33000 1619.3221 2394.4586 3230.5470 0.0000 -175813.1936 19984.5575 196.2970 0.0000 30759.7210 -117628.2904 299.0677 -148388.0114 -117566.0561 299.6250 -18.7575 -12.4158 497896.3809 4.6910 5.0056
ENERGY: 34000 1597.2744 2408.2222 3218.0670 0.0000 -175986.2599 19983.9421 209.5003 0.0000 30936.9828 -117632.2710 300.7911 -148569.2538 -117586.4283 299.8843 -61.4847 0.1765 497982.8577 9.3909 9.1407
ENERGY: 35000 1643.0857 2346.1218 3202.8262 0.0000 -175878.3929 20210.9239 197.8088 0.0000 30928.2245 -117349.4020 300.7060 -148277.6265 -117311.9668 299.7884 29.0334 52.8957 497248.6787 -7.4341 -7.1835
TCL: Setting parameter constraintScaling to 0.078125
TCL: Running for 5000 steps
ETITLE: TS BOND ANGLE DIHED IMPRP ELECT VDW BOUNDARY MISC KINETIC TOTAL TEMP POTENTIAL TOTAL3 TEMPAVG PRESSURE GPRESSURE VOLUME PRESSAVG GPRESSAVG
ENERGY: 35000 1643.0857 2346.1218 3202.8262 0.0000 -175878.3929 20210.9239 98.9044 0.0000 30926.1598 -117450.3711 300.6859 -148376.5308 -117405.0992 300.6859 25.9788 48.2326 497248.6787 25.9788 48.2326
ENERGY: 36000 1615.3201 2383.6484 3183.3227 0.0000 -175630.0330 20116.6123 141.9087 0.0000 30691.2531 -117497.9676 298.4020 -148189.2207 -117454.4344 299.4335 -61.4177 36.2893 498606.1047 11.4843 11.8538
ENERGY: 37000 1585.3148 2451.0263 3230.1315 0.0000 -175455.5915 19937.3782 138.0581 0.0000 30890.5360 -117223.1467 300.3396 -148113.6826 -117178.3488 300.6732 27.0709 52.0807 497424.0030 -11.5613 -11.9883
ENERGY: 38000 1574.4062 2402.1777 3225.8318 0.0000 -175581.6012 20001.5578 161.1945 0.0000 30843.7963 -117372.6369 299.8851 -148216.4332 -117318.5641 300.2722 -13.5041 -17.1044 496403.0279 5.0747 4.6049
ENERGY: 39000 1659.3735 2422.6455 3190.2948 0.0000 -175806.3226 20082.7912 163.7188 0.0000 30905.7099 -117381.7888 300.4871 -148287.4987 -117342.0802 299.6513 -92.7247 7.5074 497005.2161 9.1180 8.6431
ENERGY: 40000 1675.6540 2354.9174 3246.7390 0.0000 -175960.6590 20167.2011 168.2531 0.0000 30619.2994 -117728.5950 297.7024 -148347.8945 -117688.4324 298.3929 -68.1700 -73.7175 496641.9100 2.5498 2.9799
TCL: Setting parameter constraintScaling to 0.0390625
TCL: Running for 5000 steps
ETITLE: TS BOND ANGLE DIHED IMPRP ELECT VDW BOUNDARY MISC KINETIC TOTAL TEMP POTENTIAL TOTAL3 TEMPAVG PRESSURE GPRESSURE VOLUME PRESSAVG GPRESSAVG
ENERGY: 40000 1675.6540 2354.9174 3246.7390 0.0000 -175960.6590 20167.2011 84.1265 0.0000 30617.2515 -117814.7695 297.6825 -148432.0210 -117775.0229 297.6825 -84.1156 -84.7206 496641.9100 -84.1156 -84.7206
ENERGY: 41000 1643.4956 2431.0505 3209.7499 0.0000 -175771.0446 20174.8735 103.2999 0.0000 30485.0277 -117723.5475 296.3969 -148208.5752 -117683.1220 298.6166 33.0594 76.3486 498230.9966 6.2668 6.5895
ENERGY: 42000 1646.6575 2396.3075 3245.5137 0.0000 -175854.3516 20071.4439 114.2140 0.0000 30469.3151 -117910.9000 296.2442 -148380.2151 -117858.5636 299.7460 -83.0870 -83.2025 498202.9711 11.1599 11.0981
ENERGY: 43000 1643.7060 2406.9993 3216.5031 0.0000 -175819.7124 19936.5891 126.9160 0.0000 30666.7009 -117822.2980 298.1633 -148488.9989 -117765.9855 299.4610 -160.9885 -90.5348 496216.6419 -12.4562 -12.2637
ENERGY: 44000 1630.8850 2390.4097 3254.6216 0.0000 -176196.2952 20227.5805 121.0796 0.0000 30821.8662 -117749.8527 299.6719 -148571.7189 -117709.3060 299.5530 -53.3674 18.1025 496545.4865 8.2299 8.7711
ENERGY: 45000 1681.8179 2433.6514 3213.7890 0.0000 -176381.1791 20309.2177 121.7444 0.0000 30823.5586 -117797.4001 299.6884 -148620.9587 -117751.8082 299.7882 29.3638 31.9126 495577.9719 -4.5655 -5.1004
TCL: Setting parameter constraintScaling to 0.01953125
TCL: Running for 5000 steps
ETITLE: TS BOND ANGLE DIHED IMPRP ELECT VDW BOUNDARY MISC KINETIC TOTAL TEMP POTENTIAL TOTAL3 TEMPAVG PRESSURE GPRESSURE VOLUME PRESSAVG GPRESSAVG
ENERGY: 45000 1681.8179 2433.6514 3213.7890 0.0000 -176381.1791 20309.2177 60.8722 0.0000 30821.5108 -117860.3201 299.6684 -148681.8309 -117818.8941 299.6684 7.5973 8.3389 495577.9719 7.5973 8.3389
ENERGY: 46000 1586.7966 2384.3938 3210.9197 0.0000 -175832.7758 20050.7391 71.5777 0.0000 30841.5071 -117686.8419 299.8629 -148528.3489 -117652.4335 299.6655 -70.1525 -35.5806 495836.8594 -0.5621 -0.5924
ENERGY: 47000 1606.4360 2390.2732 3234.3378 0.0000 -175783.2332 20181.8218 77.9011 0.0000 30957.7715 -117334.6917 300.9933 -148292.4632 -117285.0929 299.4001 -51.6865 36.5900 497309.2495 4.4720 4.3545
ENERGY: 48000 1628.4080 2391.9441 3231.0318 0.0000 -176013.9944 20110.1294 86.3310 0.0000 30898.4395 -117667.7105 300.4164 -148566.1500 -117622.7607 300.0290 -74.5291 64.8464 497150.6138 -10.9924 -10.1444
ENERGY: 49000 1635.3385 2431.6907 3215.1017 0.0000 -175934.8970 20138.1858 87.6370 0.0000 30870.9554 -117555.9880 300.1492 -148426.9435 -117506.1992 300.0992 16.1467 -24.0131 499050.7085 12.4348 12.7715
ENERGY: 50000 1617.5655 2452.6439 3223.9614 0.0000 -175987.6497 20177.4717 89.2527 0.0000 30686.2529 -117740.5016 298.3534 -148426.7545 -117688.2456 299.3698 -37.0689 -44.0722 498277.1852 9.3567 9.4952
TCL: Setting parameter constraintScaling to 0
TCL: Running for 5000 steps
ETITLE: TS BOND ANGLE DIHED IMPRP ELECT VDW BOUNDARY MISC KINETIC TOTAL TEMP POTENTIAL TOTAL3 TEMPAVG PRESSURE GPRESSURE VOLUME PRESSAVG GPRESSAVG
ENERGY: 50000 1617.5655 2452.6439 3223.9614 0.0000 -175987.6497 20177.4717 0.0000 0.0000 30684.1944 -117831.8129 298.3334 -148516.0072 -117789.0824 298.3334 -56.6347 -62.0565 498277.1852 -56.6347 -62.0565
ENERGY: 51000 1599.2118 2366.0128 3247.7316 0.0000 -176003.2721 20171.2902 0.0000 0.0000 31068.6076 -117550.4181 302.0709 -148619.0257 -117506.6684 300.2879 -118.9672 -4.7062 498510.1546 0.2138 0.5208
ENERGY: 52000 1664.7197 2335.2067 3224.1332 0.0000 -175866.4468 20082.8660 0.0000 0.0000 31002.2505 -117557.2708 301.4257 -148559.5213 -117517.9022 299.6506 -100.5047 40.8759 497726.7227 7.5667 8.1603
ENERGY: 53000 1690.1097 2339.3623 3196.0598 0.0000 -176041.7048 20116.1229 0.0000 0.0000 30765.1792 -117934.8709 299.1208 -148700.0501 -117880.8152 300.2160 -35.1640 -19.5355 497123.6494 -3.6338 -3.6672
ENERGY: 54000 1624.7866 2442.1623 3188.9234 0.0000 -176215.9268 20188.3999 0.0000 0.0000 30953.0557 -117818.5990 300.9474 -148771.6547 -117763.3166 299.5881 -1.1586 65.0971 497662.5327 7.3448 6.7101
ENERGY: 55000 1596.5897 2401.6050 3183.6970 0.0000 -175760.1567 20072.5959 0.0000 0.0000 30765.1024 -117740.5667 299.1200 -148505.6691 -117693.5042 300.2834 -10.5177 83.8307 498560.5781 -5.5762 -5.4464
