Info: SIMULATION PARAMETERS:
Info: TIMESTEP               2
Info: NUMBER OF STEPS        0
Info: STEPS PER CYCLE        10
Info: PERIODIC CELL BASIS 1  72.449 0 0
Info: PERIODIC CELL BASIS 2  0 93.247 0
Info: PERIODIC CELL BASIS 3  0 0 79.185
Info: PERIODIC CELL CENTER   -0.248 -0.156 -0.047
Info: WRAPPING WATERS AROUND PERIODIC BOUNDARIES ON OUTPUT.
Info: WRAPPING ALL CLUSTERS AROUND PERIODIC BOUNDARIES ON OUTPUT.
Info: FIRST LDB TIMESTEP     50
Info: LAST LDB TIMESTEP     -1
Info: HOM BACKGROUND SCALING 1
Info: PME BACKGROUND SCALING 1
Info: MIN ATOMS PER PATCH    40
Info: INITIAL TEMPERATURE    0
Info: CENTER OF MASS MOVING INITIALLY? NO
Info: DIELECTRIC             1
Info: EXCLUDE                SCALED ONE-FOUR
Info: 1-4 ELECTROSTATICS SCALED BY 0.833333
Info: MODIFIED 1-4 VDW PARAMETERS WILL BE USED
Info: NO DCD TRAJECTORY OUTPUT
Info: NO EXTENDED SYSTEM TRAJECTORY OUTPUT
Info: NO VELOCITY DCD OUTPUT
Info: NO FORCE DCD OUTPUT
Info: OUTPUT FILENAME        ../replicas/rep126/equilibration/eq0
Info: NO RESTART FILE
Info: SWITCHING ACTIVE
Info: SWITCHING ON           10
Info: SWITCHING OFF          12
Info: PAIRLIST DISTANCE      13.5
Info: PAIRLIST SHRINK RATE   0.01
Info: PAIRLIST GROW RATE     0.01
Info: PAIRLIST TRIGGER       0.3
Info: PAIRLISTS PER CYCLE    2
Info: PAIRLISTS ENABLED
Info: MARGIN                 0
Info: HYDROGEN GROUP CUTOFF  2.5
Info: PATCH DIMENSION        16
Info: ENERGY OUTPUT STEPS    500
Info: CROSSTERM ENERGY INCLUDED IN DIHEDRAL
Info: TIMING OUTPUT STEPS    5000
Info: PRESSURE OUTPUT STEPS  500
Info: HARMONIC CONSTRAINTS ACTIVE
Info: HARMONIC CONS EXP      2
Info: HARMONIC CONS SCALING  10
Info: CONJUGATE GRADIENT MINIMIZATION ACTIVE
Info: LINE MINIMIZATION GOAL = 0.001
Info: BABY STEP SIZE = 0.01
Info: TINY STEP SIZE = 1e-06
Info: PARTICLE MESH EWALD (PME) ACTIVE
Info: PME TOLERANCE               1e-06
Info: PME EWALD COEFFICIENT       0.257952
Info: PME INTERPOLATION ORDER     4
Info: PME GRID DIMENSIONS         80 96 80
Info: PME MAXIMUM GRID SPACING    1
Info: FULL ELECTROSTATIC EVALUATION FREQUENCY      2
Info: USING VERLET I (r-RESPA) MTS SCHEME.
Info: C1 SPLITTING OF LONG RANGE ELECTROSTATICS
Info: PLACING ATOMS IN PATCHES BY HYDROGEN GROUPS
Info: RIGID BONDS TO HYDROGEN : ALL
Info:         ERROR TOLERANCE : 1e-05
Info:          MAX ITERATIONS : 100
Info: RIGID WATER USING SETTLE ALGORITHM
Info: RANDOM NUMBER SEED     1503691734
Info: USE HYDROGEN BONDS?    NO
Info: Using AMBER format force field!
Info: AMBER PARM FILE        ../build/complex.top
Info: COORDINATE PDB         ../build/complex.pdb
Info: Exclusions in PARM file will be ignored!
Info: SCNB (VDW SCALING)     2
Info: USING ARITHMETIC MEAN TO COMBINE L-J SIGMA PARAMETERS
Info: SUMMARY OF PARAMETERS:
Info: 71 BONDS
Info: 145 ANGLES
Info: 76 DIHEDRAL
Info: 0 IMPROPER
Info: 0 CROSSTERM
Info: 0 VDW
Info: 190 VDW_PAIRS
Info: 0 NBTHOLE_PAIRS
Info: STRUCTURE SUMMARY:
Info: 49394 ATOMS
Info: 49448 BONDS
Info: 8698 ANGLES
Info: 18780 DIHEDRALS
Info: 0 IMPROPERS
Info: 0 CROSSTERMS
Info: 0 EXCLUSIONS
Info: 2336 CONSTRAINTS
Info: 47058 RIGID BONDS
Info: 101124 DEGREES OF FREEDOM
Info: 17225 HYDROGEN GROUPS
Info: 4 ATOMS IN LARGEST HYDROGEN GROUP
Info: 17225 MIGRATION GROUPS
Info: 4 ATOMS IN LARGEST MIGRATION GROUP
Info: TOTAL MASS = 301478 amu
Info: TOTAL CHARGE = 1.00115e-05 e
Info: MASS DENSITY = 0.935846 g/cm^3
Info: ATOM DENSITY = 0.0923345 atoms/A^3
Info: ADDED 70656 IMPLICIT EXCLUSIONS
Info: NONBONDED TABLE R-SQUARED SPACING: 0.0625
Info: NONBONDED TABLE SIZE: 769 POINTS
Info: REMOVING COM VELOCITY 0 0 0
TCL: Minimizing for 100 steps
ETITLE: TS BOND ANGLE DIHED IMPRP ELECT VDW BOUNDARY MISC KINETIC TOTAL TEMP POTENTIAL TOTAL3 TEMPAVG PRESSURE GPRESSURE VOLUME PRESSAVG GPRESSAVG
ENERGY: 0 155.4176 1012.2698 2855.7272 0.0000 -154496.7912 207729.2052 0.0468 0.0000 0.0000 57255.8754 0.0000 57255.8754 57255.8754 0.0000 116350.2532 86546.1670 534946.2959 116350.2532 86546.1670
ENERGY: 20 304.7565 935.7913 2893.4663 0.0000 -158672.9416 17936.6589 143.9455 0.0000 0.0000 -136458.3232 0.0000 -136458.3232 -136458.3232 0.0000 16523.9381 -239.4565 534946.2959 16523.9381 -239.4565
ENERGY: 40 198.7443 799.5728 2896.9273 0.0000 -162811.4520 16417.9540 221.3030 0.0000 0.0000 -142276.9506 0.0000 -142276.9506 -142276.9506 0.0000 15011.2707 -2135.4693 534946.2959 15011.2707 -2135.4693
ENERGY: 60 130.5283 715.3440 2898.2166 0.0000 -167496.1538 15446.7544 315.2796 0.0000 0.0000 -147990.0308 0.0000 -147990.0308 -147990.0308 0.0000 13793.8844 -3799.3977 534946.2959 13793.8844 -3799.3977
ENERGY: 80 431.2724 765.6305 2904.3786 0.0000 -169937.5295 15121.1523 372.0123 0.0000 0.0000 -150343.0834 0.0000 -150343.0834 -150343.0834 0.0000 13270.3308 -4577.2444 534946.2959 13270.3308 -4577.2444
ENERGY: 100 129.7136 708.0648 2904.2780 0.0000 -171050.0640 15018.6537 384.2000 0.0000 0.0000 -151905.1539 0.0000 -151905.1539 -151905.1539 0.0000 13092.9132 -4843.6307 534946.2959 13092.9132 -4843.6307
TCL: Setting parameter constraintScaling to 5.0
TCL: Minimizing for 100 steps
ETITLE: TS BOND ANGLE DIHED IMPRP ELECT VDW BOUNDARY MISC KINETIC TOTAL TEMP POTENTIAL TOTAL3 TEMPAVG PRESSURE GPRESSURE VOLUME PRESSAVG GPRESSAVG
ENERGY: 100 129.7136 708.0648 2904.2780 0.0000 -171050.0640 15018.6537 192.1000 0.0000 0.0000 -152097.2538 0.0000 -152097.2538 -152097.2538 0.0000 13703.5084 -22944.4538 534946.2959 13703.5084 -22944.4538
ENERGY: 120 118.6823 680.2875 2909.9066 0.0000 -172396.3117 14830.1206 259.9549 0.0000 0.0000 -153597.3597 0.0000 -153597.3597 -153597.3597 0.0000 13320.9475 -4756.3069 534946.2959 13320.9475 -4756.3069
ENERGY: 140 109.1483 671.1469 2912.0864 0.0000 -174830.2638 14716.1438 337.7309 0.0000 0.0000 -156084.0076 0.0000 -156084.0076 -156084.0076 0.0000 12908.9584 -5423.1471 534946.2959 12908.9584 -5423.1471
ENERGY: 160 303.0015 691.2592 2915.1770 0.0000 -176082.5765 14739.2640 369.8384 0.0000 0.0000 -157064.0365 0.0000 -157064.0365 -157064.0365 0.0000 12780.5524 -5682.1815 534946.2959 12780.5524 -5682.1815
ENERGY: 180 182.1884 640.7524 2917.0632 0.0000 -177289.4095 14805.0570 391.8972 0.0000 0.0000 -158352.4514 0.0000 -158352.4514 -158352.4514 0.0000 12715.3609 -5871.4041 534946.2959 12715.3609 -5871.4041
ENERGY: 200 200.8288 672.8147 2923.8875 0.0000 -179263.0587 15029.6797 438.8846 0.0000 0.0000 -159996.9635 0.0000 -159996.9635 -159996.9635 0.0000 12652.1220 -6139.5389 534946.2959 12652.1220 -6139.5389
TCL: Setting parameter constraintScaling to 2.5
TCL: Minimizing for 100 steps
ETITLE: TS BOND ANGLE DIHED IMPRP ELECT VDW BOUNDARY MISC KINETIC TOTAL TEMP POTENTIAL TOTAL3 TEMPAVG PRESSURE GPRESSURE VOLUME PRESSAVG GPRESSAVG
ENERGY: 200 200.8288 672.8147 2923.8875 0.0000 -179263.0587 15029.6797 219.4423 0.0000 0.0000 -160216.4058 0.0000 -160216.4058 -160216.4058 0.0000 13194.5910 -25224.5679 534946.2959 13194.5910 -25224.5679
ENERGY: 220 129.4315 648.4160 2922.2168 0.0000 -180050.5193 15072.5981 269.1056 0.0000 0.0000 -161008.7512 0.0000 -161008.7512 -161008.7512 0.0000 13073.4292 -5813.2752 534946.2959 13073.4292 -5813.2752
ENERGY: 240 148.6955 630.0434 2922.2769 0.0000 -182011.1950 15361.3092 366.0677 0.0000 0.0000 -162582.8021 0.0000 -162582.8021 -162582.8021 0.0000 12907.0240 -6166.0500 534946.2959 12907.0240 -6166.0500
ENERGY: 260 225.6714 662.3405 2925.6697 0.0000 -183827.7264 15792.1902 453.4690 0.0000 0.0000 -163768.3856 0.0000 -163768.3856 -163768.3856 0.0000 12946.2459 -6339.1240 534946.2959 12946.2459 -6339.1240
ENERGY: 280 209.8386 656.3781 2926.5622 0.0000 -186046.3387 16591.1701 535.7521 0.0000 0.0000 -165126.6375 0.0000 -165126.6375 -165126.6375 0.0000 13154.7929 -6357.2503 534946.2959 13154.7929 -6357.2503
ENERGY: 300 129.0355 634.3755 2921.8455 0.0000 -187695.1504 17313.1237 557.2546 0.0000 0.0000 -166139.5154 0.0000 -166139.5154 -166139.5154 0.0000 13542.8765 -6162.5634 534946.2959 13542.8765 -6162.5634
TCL: Setting parameter constraintScaling to 1.25
TCL: Minimizing for 100 steps
ETITLE: TS BOND ANGLE DIHED IMPRP ELECT VDW BOUNDARY MISC KINETIC TOTAL TEMP POTENTIAL TOTAL3 TEMPAVG PRESSURE GPRESSURE VOLUME PRESSAVG GPRESSAVG
ENERGY: 300 129.0355 634.3755 2921.8455 0.0000 -187695.1504 17313.1237 278.6273 0.0000 0.0000 -166418.1427 0.0000 -166418.1427 -166418.1427 0.0000 14034.1621 -26314.1256 534946.2959 14034.1621 -26314.1256
ENERGY: 320 135.9213 632.7064 2912.4155 0.0000 -188177.4152 17272.9149 319.0430 0.0000 0.0000 -166904.4142 0.0000 -166904.4142 -166904.4142 0.0000 13914.7538 -5856.8269 534946.2959 13914.7538 -5856.8269
ENERGY: 340 409.5583 660.5932 2903.5424 0.0000 -189821.1652 17638.3397 385.8193 0.0000 0.0000 -167823.3123 0.0000 -167823.3123 -167823.3123 0.0000 13910.9012 -6038.0279 534946.2959 13910.9012 -6038.0279
ENERGY: 360 178.0300 633.3467 2904.7297 0.0000 -190244.9446 17811.5272 378.7529 0.0000 0.0000 -168338.5580 0.0000 -168338.5580 -168338.5580 0.0000 14018.4475 -5975.8906 534946.2959 14018.4475 -5975.8906
ENERGY: 380 181.6301 688.2039 2907.8176 0.0000 -192329.1954 18832.7381 373.5173 0.0000 0.0000 -169345.2884 0.0000 -169345.2884 -169345.2884 0.0000 14683.1435 -5589.5222 534946.2959 14683.1435 -5589.5222
ENERGY: 400 204.3287 655.6255 2912.3558 0.0000 -194344.6505 19898.7943 411.5855 0.0000 0.0000 -170261.9607 0.0000 -170261.9607 -170261.9607 0.0000 15084.9562 -5367.5100 534946.2959 15084.9562 -5367.5100
TCL: Setting parameter constraintScaling to 0.625
TCL: Minimizing for 100 steps
ETITLE: TS BOND ANGLE DIHED IMPRP ELECT VDW BOUNDARY MISC KINETIC TOTAL TEMP POTENTIAL TOTAL3 TEMPAVG PRESSURE GPRESSURE VOLUME PRESSAVG GPRESSAVG
ENERGY: 400 204.3287 655.6255 2912.3558 0.0000 -194344.6505 19898.7943 205.7927 0.0000 0.0000 -170467.7535 0.0000 -170467.7535 -170467.7535 0.0000 15389.8872 -26567.5319 534946.2959 15389.8872 -26567.5319
ENERGY: 420 277.1181 676.1963 2884.4366 0.0000 -194602.8652 19641.9299 248.5536 0.0000 0.0000 -170874.6307 0.0000 -170874.6307 -170874.6307 0.0000 15155.9994 -5344.4761 534946.2959 15155.9994 -5344.4761
ENERGY: 440 155.7081 634.2661 2881.4231 0.0000 -194797.9849 19628.6151 264.2071 0.0000 0.0000 -171233.7655 0.0000 -171233.7655 -171233.7655 0.0000 15144.1653 -5373.7198 534946.2959 15144.1653 -5373.7198
ENERGY: 460 155.3652 633.9626 2881.4521 0.0000 -195496.2461 19801.1634 304.6111 0.0000 0.0000 -171719.6917 0.0000 -171719.6917 -171719.6917 0.0000 15126.0583 -5457.9082 534946.2959 15126.0583 -5457.9082
ENERGY: 480 155.2405 640.5393 2875.8647 0.0000 -195752.6604 19895.2890 304.2606 0.0000 0.0000 -171881.4664 0.0000 -171881.4664 -171881.4664 0.0000 15207.1513 -5422.0840 534946.2959 15207.1513 -5422.0840
ENERGY: 500 147.1567 637.1362 2876.7711 0.0000 -196679.9759 20313.1156 310.4745 0.0000 0.0000 -172395.3219 0.0000 -172395.3219 -172395.3219 0.0000 15447.2293 -5292.3277 534946.2959 15447.2293 -5292.3277
TCL: Setting parameter constraintScaling to 0.3125
TCL: Minimizing for 100 steps
ETITLE: TS BOND ANGLE DIHED IMPRP ELECT VDW BOUNDARY MISC KINETIC TOTAL TEMP POTENTIAL TOTAL3 TEMPAVG PRESSURE GPRESSURE VOLUME PRESSAVG GPRESSAVG
ENERGY: 500 147.1567 637.1362 2876.7711 0.0000 -196679.9759 20313.1156 155.2372 0.0000 0.0000 -172550.5592 0.0000 -172550.5592 -172550.5592 0.0000 15639.1894 -26860.2090 534946.2959 15639.1894 -26860.2090
ENERGY: 520 170.9305 642.0487 2870.5658 0.0000 -196976.1514 20346.6400 173.3039 0.0000 0.0000 -172772.6624 0.0000 -172772.6624 -172772.6624 0.0000 15579.6262 -5196.6308 534946.2959 15579.6262 -5196.6308
ENERGY: 540 153.3379 638.2340 2868.8115 0.0000 -197461.4007 20496.0622 191.5290 0.0000 0.0000 -173113.4261 0.0000 -173113.4261 -173113.4261 0.0000 15603.3243 -5215.9025 534946.2959 15603.3243 -5215.9025
ENERGY: 560 194.4680 653.2854 2868.0267 0.0000 -198086.5605 20715.1778 210.6758 0.0000 0.0000 -173444.9268 0.0000 -173444.9268 -173444.9268 0.0000 15656.5404 -5232.6478 534946.2959 15656.5404 -5232.6478
ENERGY: 580 180.8754 664.1417 2863.6990 0.0000 -198550.5050 20914.2203 214.3023 0.0000 0.0000 -173713.2664 0.0000 -173713.2664 -173713.2664 0.0000 15828.2882 -5132.1453 534946.2959 15828.2882 -5132.1453
ENERGY: 600 215.8973 685.1695 2877.3816 0.0000 -199585.8241 21392.3935 223.7481 0.0000 0.0000 -174191.2342 0.0000 -174191.2342 -174191.2342 0.0000 16022.2771 -5042.7890 534946.2959 16022.2771 -5042.7890
TCL: Setting parameter constraintScaling to 0.15625
TCL: Minimizing for 100 steps
ETITLE: TS BOND ANGLE DIHED IMPRP ELECT VDW BOUNDARY MISC KINETIC TOTAL TEMP POTENTIAL TOTAL3 TEMPAVG PRESSURE GPRESSURE VOLUME PRESSAVG GPRESSAVG
ENERGY: 600 215.8973 685.1695 2877.3816 0.0000 -199585.8241 21392.3935 111.8740 0.0000 0.0000 -174303.1083 0.0000 -174303.1083 -174303.1083 0.0000 16143.1312 -27057.2601 534946.2959 16143.1312 -27057.2601
ENERGY: 620 151.2632 636.1002 2853.9217 0.0000 -199719.5076 21379.7496 118.3073 0.0000 0.0000 -174580.1656 0.0000 -174580.1656 -174580.1656 0.0000 16147.2509 -4939.4647 534946.2959 16147.2509 -4939.4647
ENERGY: 640 180.9551 654.9964 2849.0817 0.0000 -200208.0396 21500.7529 136.4127 0.0000 0.0000 -174885.8408 0.0000 -174885.8408 -174885.8408 0.0000 16131.9293 -5011.8585 534946.2959 16131.9293 -5011.8585
ENERGY: 660 158.5114 646.2148 2844.9797 0.0000 -200515.7574 21624.6604 135.5367 0.0000 0.0000 -175105.8543 0.0000 -175105.8543 -175105.8543 0.0000 16218.1664 -4961.6276 534946.2959 16218.1664 -4961.6276
ENERGY: 680 185.3142 666.7785 2853.9299 0.0000 -201484.5015 22053.0143 146.4962 0.0000 0.0000 -175578.9684 0.0000 -175578.9684 -175578.9684 0.0000 16446.8771 -4848.1646 534946.2959 16446.8771 -4848.1646
ENERGY: 700 177.7396 656.6187 2836.8140 0.0000 -201652.3731 22068.8810 153.3118 0.0000 0.0000 -175759.0081 0.0000 -175759.0081 -175759.0081 0.0000 16434.0173 -4877.9746 534946.2959 16434.0173 -4877.9746
TCL: Setting parameter constraintScaling to 0.078125
TCL: Minimizing for 100 steps
ETITLE: TS BOND ANGLE DIHED IMPRP ELECT VDW BOUNDARY MISC KINETIC TOTAL TEMP POTENTIAL TOTAL3 TEMPAVG PRESSURE GPRESSURE VOLUME PRESSAVG GPRESSAVG
ENERGY: 700 177.7396 656.6187 2836.8140 0.0000 -201652.3731 22068.8810 76.6559 0.0000 0.0000 -175835.6639 0.0000 -175835.6639 -175835.6639 0.0000 16506.3243 -27184.6704 534946.2959 16506.3243 -27184.6704
ENERGY: 720 157.3853 641.5447 2839.7000 0.0000 -201724.3569 22080.6925 77.6794 0.0000 0.0000 -175927.3550 0.0000 -175927.3550 -175927.3550 0.0000 16504.0996 -4817.6247 534946.2959 16504.0996 -4817.6247
ENERGY: 740 170.7900 654.1134 2832.1729 0.0000 -202110.6056 22223.7104 84.1056 0.0000 0.0000 -176145.7133 0.0000 -176145.7133 -176145.7133 0.0000 16539.3589 -4820.7429 534946.2959 16539.3589 -4820.7429
ENERGY: 760 176.8407 655.5447 2829.6449 0.0000 -202679.5044 22440.1116 90.9014 0.0000 0.0000 -176486.4611 0.0000 -176486.4611 -176486.4611 0.0000 16647.1572 -4782.1640 534946.2959 16647.1572 -4782.1640
ENERGY: 780 163.8671 646.0116 2830.6666 0.0000 -203057.4750 22624.7152 90.3401 0.0000 0.0000 -176701.8745 0.0000 -176701.8745 -176701.8745 0.0000 16774.9606 -4704.3324 534946.2959 16774.9606 -4704.3324
ENERGY: 800 157.6831 650.2057 2835.7486 0.0000 -203710.8295 22956.9620 95.1289 0.0000 0.0000 -177015.1012 0.0000 -177015.1012 -177015.1012 0.0000 16960.6701 -4592.2190 534946.2959 16960.6701 -4592.2190
TCL: Setting parameter constraintScaling to 0.0390625
TCL: Minimizing for 100 steps
ETITLE: TS BOND ANGLE DIHED IMPRP ELECT VDW BOUNDARY MISC KINETIC TOTAL TEMP POTENTIAL TOTAL3 TEMPAVG PRESSURE GPRESSURE VOLUME PRESSAVG GPRESSAVG
ENERGY: 800 157.6831 650.2057 2835.7486 0.0000 -203710.8295 22956.9620 47.5644 0.0000 0.0000 -177062.6657 0.0000 -177062.6657 -177062.6657 0.0000 17002.3628 -27180.5887 534946.2959 17002.3628 -27180.5887
ENERGY: 820 162.6826 647.0954 2822.0950 0.0000 -203885.8219 22956.7549 50.0566 0.0000 0.0000 -177247.1375 0.0000 -177247.1375 -177247.1375 0.0000 16963.1522 -4609.7126 534946.2959 16963.1522 -4609.7126
ENERGY: 840 175.6396 668.5434 2823.8038 0.0000 -204214.3261 23090.0445 53.6131 0.0000 0.0000 -177402.6817 0.0000 -177402.6817 -177402.6817 0.0000 16989.1254 -4614.5038 534946.2959 16989.1254 -4614.5038
ENERGY: 860 169.6654 655.0212 2818.6947 0.0000 -204448.2620 23190.5190 55.1156 0.0000 0.0000 -177559.2461 0.0000 -177559.2461 -177559.2461 0.0000 17052.2833 -4581.8153 534946.2959 17052.2833 -4581.8153
ENERGY: 880 156.5294 651.0845 2818.8584 0.0000 -204741.9514 23337.6247 54.6647 0.0000 0.0000 -177723.1895 0.0000 -177723.1895 -177723.1895 0.0000 17172.9032 -4509.9072 534946.2959 17172.9032 -4509.9072
ENERGY: 900 156.4266 657.1266 2823.3691 0.0000 -205248.4961 23609.4450 56.5854 0.0000 0.0000 -177945.5434 0.0000 -177945.5434 -177945.5434 0.0000 17321.2759 -4411.3969 534946.2959 17321.2759 -4411.3969
TCL: Setting parameter constraintScaling to 0.01953125
TCL: Minimizing for 100 steps
ETITLE: TS BOND ANGLE DIHED IMPRP ELECT VDW BOUNDARY MISC KINETIC TOTAL TEMP POTENTIAL TOTAL3 TEMPAVG PRESSURE GPRESSURE VOLUME PRESSAVG GPRESSAVG
ENERGY: 900 156.4266 657.1266 2823.3691 0.0000 -205248.4961 23609.4450 28.2927 0.0000 0.0000 -177973.8360 0.0000 -177973.8360 -177973.8360 0.0000 17344.7478 -27209.5014 534946.2959 17344.7478 -27209.5014
ENERGY: 920 157.8292 646.9847 2812.9346 0.0000 -205369.0745 23608.7258 29.3098 0.0000 0.0000 -178113.2902 0.0000 -178113.2902 -178113.2902 0.0000 17319.8488 -4427.1507 534946.2959 17319.8488 -4427.1507
ENERGY: 940 164.9004 660.1447 2813.2736 0.0000 -205631.8043 23704.9001 31.1974 0.0000 0.0000 -178257.3880 0.0000 -178257.3880 -178257.3880 0.0000 17325.6432 -4449.6397 534946.2959 17325.6432 -4449.6397
ENERGY: 960 170.2564 658.1903 2808.8641 0.0000 -205817.9246 23783.5550 31.7163 0.0000 0.0000 -178365.3425 0.0000 -178365.3425 -178365.3425 0.0000 17370.2123 -4422.7680 534946.2959 17370.2123 -4422.7680
ENERGY: 980 168.5587 649.1866 2812.9006 0.0000 -206122.1885 23949.1111 31.8427 0.0000 0.0000 -178510.5888 0.0000 -178510.5888 -178510.5888 0.0000 17482.4506 -4346.1571 534946.2959 17482.4506 -4346.1571
ENERGY: 1000 162.5742 657.1634 2807.5611 0.0000 -206309.9479 24009.7375 32.8567 0.0000 0.0000 -178640.0549 0.0000 -178640.0549 -178640.0549 0.0000 17509.9526 -4343.2193 534946.2959 17509.9526 -4343.2193
TCL: Setting parameter constraintScaling to 0
TCL: Minimizing for 5000 steps
ETITLE: TS BOND ANGLE DIHED IMPRP ELECT VDW BOUNDARY MISC KINETIC TOTAL TEMP POTENTIAL TOTAL3 TEMPAVG PRESSURE GPRESSURE VOLUME PRESSAVG GPRESSAVG
ENERGY: 1000 162.5742 657.1634 2807.5611 0.0000 -206309.9479 24009.7375 0.0000 0.0000 0.0000 -178672.9116 0.0000 -178672.9116 -178672.9116 0.0000 17535.5458 -27262.5565 534946.2959 17535.5458 -27262.5565
ENERGY: 2000 167.2599 660.0068 2796.9099 0.0000 -214635.7952 27664.5866 0.0000 0.0000 0.0000 -183347.0321 0.0000 -183347.0321 -183347.0321 0.0000 19462.8084 -3331.1288 534946.2959 19462.8084 -3331.1288
ENERGY: 3000 178.4701 674.3206 2798.4886 0.0000 -217314.7360 28848.4836 0.0000 0.0000 0.0000 -184814.9733 0.0000 -184814.9733 -184814.9733 0.0000 20097.8285 -2687.6156 534946.2959 20097.8285 -2687.6156
ENERGY: 4000 173.7750 664.7383 2789.0394 0.0000 -218621.9257 29292.8592 0.0000 0.0000 0.0000 -185701.5139 0.0000 -185701.5139 -185701.5139 0.0000 20327.7994 -2598.8763 534946.2959 20327.7994 -2598.8763
ENERGY: 5000 165.0130 663.4934 2788.4992 0.0000 -219419.2493 29668.2026 0.0000 0.0000 0.0000 -186134.0411 0.0000 -186134.0411 -186134.0411 0.0000 20529.1342 -2441.8746 534946.2959 20529.1342 -2441.8746
ENERGY: 6000 165.4854 665.5447 2785.7178 0.0000 -219953.1669 29919.3069 0.0000 0.0000 0.0000 -186417.1121 0.0000 -186417.1121 -186417.1121 0.0000 20656.8266 -2384.9583 534946.2959 20656.8266 -2384.9583
