Info: SIMULATION PARAMETERS:
Info: TIMESTEP               2
Info: NUMBER OF STEPS        0
Info: STEPS PER CYCLE        10
Info: PERIODIC CELL BASIS 1  72.449 0 0
Info: PERIODIC CELL BASIS 2  0 93.247 0
Info: PERIODIC CELL BASIS 3  0 0 79.185
Info: PERIODIC CELL CENTER   -0.248 -0.156 -0.047
Info: WRAPPING WATERS AROUND PERIODIC BOUNDARIES ON OUTPUT.
Info: WRAPPING ALL CLUSTERS AROUND PERIODIC BOUNDARIES ON OUTPUT.
Info: FIRST LDB TIMESTEP     50
Info: LAST LDB TIMESTEP     -1
Info: HOM BACKGROUND SCALING 1
Info: PME BACKGROUND SCALING 1
Info: MIN ATOMS PER PATCH    40
Info: INITIAL TEMPERATURE    0
Info: CENTER OF MASS MOVING INITIALLY? NO
Info: DIELECTRIC             1
Info: EXCLUDE                SCALED ONE-FOUR
Info: 1-4 ELECTROSTATICS SCALED BY 0.833333
Info: MODIFIED 1-4 VDW PARAMETERS WILL BE USED
Info: NO DCD TRAJECTORY OUTPUT
Info: NO EXTENDED SYSTEM TRAJECTORY OUTPUT
Info: NO VELOCITY DCD OUTPUT
Info: NO FORCE DCD OUTPUT
Info: OUTPUT FILENAME        ../replicas/rep90/equilibration/eq0
Info: NO RESTART FILE
Info: SWITCHING ACTIVE
Info: SWITCHING ON           10
Info: SWITCHING OFF          12
Info: PAIRLIST DISTANCE      13.5
Info: PAIRLIST SHRINK RATE   0.01
Info: PAIRLIST GROW RATE     0.01
Info: PAIRLIST TRIGGER       0.3
Info: PAIRLISTS PER CYCLE    2
Info: PAIRLISTS ENABLED
Info: MARGIN                 0
Info: HYDROGEN GROUP CUTOFF  2.5
Info: PATCH DIMENSION        16
Info: ENERGY OUTPUT STEPS    500
Info: CROSSTERM ENERGY INCLUDED IN DIHEDRAL
Info: TIMING OUTPUT STEPS    5000
Info: PRESSURE OUTPUT STEPS  500
Info: HARMONIC CONSTRAINTS ACTIVE
Info: HARMONIC CONS EXP      2
Info: HARMONIC CONS SCALING  10
Info: CONJUGATE GRADIENT MINIMIZATION ACTIVE
Info: LINE MINIMIZATION GOAL = 0.001
Info: BABY STEP SIZE = 0.01
Info: TINY STEP SIZE = 1e-06
Info: PARTICLE MESH EWALD (PME) ACTIVE
Info: PME TOLERANCE               1e-06
Info: PME EWALD COEFFICIENT       0.257952
Info: PME INTERPOLATION ORDER     4
Info: PME GRID DIMENSIONS         80 96 80
Info: PME MAXIMUM GRID SPACING    1
Info: FULL ELECTROSTATIC EVALUATION FREQUENCY      2
Info: USING VERLET I (r-RESPA) MTS SCHEME.
Info: C1 SPLITTING OF LONG RANGE ELECTROSTATICS
Info: PLACING ATOMS IN PATCHES BY HYDROGEN GROUPS
Info: RIGID BONDS TO HYDROGEN : ALL
Info:         ERROR TOLERANCE : 1e-05
Info:          MAX ITERATIONS : 100
Info: RIGID WATER USING SETTLE ALGORITHM
Info: RANDOM NUMBER SEED     1503690788
Info: USE HYDROGEN BONDS?    NO
Info: Using AMBER format force field!
Info: AMBER PARM FILE        ../build/complex.top
Info: COORDINATE PDB         ../build/complex.pdb
Info: Exclusions in PARM file will be ignored!
Info: SCNB (VDW SCALING)     2
Info: USING ARITHMETIC MEAN TO COMBINE L-J SIGMA PARAMETERS
Info: SUMMARY OF PARAMETERS:
Info: 71 BONDS
Info: 145 ANGLES
Info: 76 DIHEDRAL
Info: 0 IMPROPER
Info: 0 CROSSTERM
Info: 0 VDW
Info: 190 VDW_PAIRS
Info: 0 NBTHOLE_PAIRS
Info: STRUCTURE SUMMARY:
Info: 49394 ATOMS
Info: 49448 BONDS
Info: 8698 ANGLES
Info: 18780 DIHEDRALS
Info: 0 IMPROPERS
Info: 0 CROSSTERMS
Info: 0 EXCLUSIONS
Info: 2336 CONSTRAINTS
Info: 47058 RIGID BONDS
Info: 101124 DEGREES OF FREEDOM
Info: 17225 HYDROGEN GROUPS
Info: 4 ATOMS IN LARGEST HYDROGEN GROUP
Info: 17225 MIGRATION GROUPS
Info: 4 ATOMS IN LARGEST MIGRATION GROUP
Info: TOTAL MASS = 301478 amu
Info: TOTAL CHARGE = 1.00115e-05 e
Info: MASS DENSITY = 0.935846 g/cm^3
Info: ATOM DENSITY = 0.0923345 atoms/A^3
Info: ADDED 70656 IMPLICIT EXCLUSIONS
Info: NONBONDED TABLE R-SQUARED SPACING: 0.0625
Info: NONBONDED TABLE SIZE: 769 POINTS
Info: REMOVING COM VELOCITY 0 0 0
TCL: Minimizing for 100 steps
ETITLE: TS BOND ANGLE DIHED IMPRP ELECT VDW BOUNDARY MISC KINETIC TOTAL TEMP POTENTIAL TOTAL3 TEMPAVG PRESSURE GPRESSURE VOLUME PRESSAVG GPRESSAVG
ENERGY: 0 155.4176 1012.2698 2855.7272 0.0000 -154496.7911 207729.2052 0.0468 0.0000 0.0000 57255.8755 0.0000 57255.8755 57255.8755 0.0000 116350.2532 86546.1670 534946.2959 116350.2532 86546.1670
ENERGY: 20 304.7563 935.7913 2893.4663 0.0000 -158672.9413 17936.6589 143.9455 0.0000 0.0000 -136458.3230 0.0000 -136458.3230 -136458.3230 0.0000 16523.9382 -239.4564 534946.2959 16523.9382 -239.4564
ENERGY: 40 198.7445 799.5728 2896.9273 0.0000 -162811.4518 16417.9541 221.3030 0.0000 0.0000 -142276.9502 0.0000 -142276.9502 -142276.9502 0.0000 15011.2707 -2135.4693 534946.2959 15011.2707 -2135.4693
ENERGY: 60 130.5283 715.3440 2898.2166 0.0000 -167496.1548 15446.7543 315.2796 0.0000 0.0000 -147990.0320 0.0000 -147990.0320 -147990.0320 0.0000 13793.8842 -3799.3980 534946.2959 13793.8842 -3799.3980
ENERGY: 80 431.2724 765.6305 2904.3786 0.0000 -169937.5319 15121.1520 372.0123 0.0000 0.0000 -150343.0859 0.0000 -150343.0859 -150343.0859 0.0000 13270.3303 -4577.2451 534946.2959 13270.3303 -4577.2451
ENERGY: 100 119.3850 710.0600 2905.2590 0.0000 -171259.7084 14991.7874 387.3612 0.0000 0.0000 -152145.8558 0.0000 -152145.8558 -152145.8558 0.0000 13056.2663 -4908.1709 534946.2959 13056.2663 -4908.1709
TCL: Setting parameter constraintScaling to 5.0
TCL: Minimizing for 100 steps
ETITLE: TS BOND ANGLE DIHED IMPRP ELECT VDW BOUNDARY MISC KINETIC TOTAL TEMP POTENTIAL TOTAL3 TEMPAVG PRESSURE GPRESSURE VOLUME PRESSAVG GPRESSAVG
ENERGY: 100 119.3850 710.0600 2905.2590 0.0000 -171259.7084 14991.7874 193.6806 0.0000 0.0000 -152339.5364 0.0000 -152339.5364 -152339.5364 0.0000 13672.7723 -23021.8170 534946.2959 13672.7723 -23021.8170
ENERGY: 120 108.8837 687.5845 2912.9266 0.0000 -172865.8796 14798.2709 281.1916 0.0000 0.0000 -154077.0221 0.0000 -154077.0221 -154077.0221 0.0000 13218.2553 -4906.0158 534946.2959 13218.2553 -4906.0158
ENERGY: 140 309.4373 708.8692 2913.8025 0.0000 -174236.6333 14731.4831 326.6382 0.0000 0.0000 -155246.4031 0.0000 -155246.4031 -155246.4031 0.0000 12971.5317 -5303.2338 534946.2959 12971.5317 -5303.2338
ENERGY: 160 265.1645 683.0948 2923.1701 0.0000 -176274.8759 14757.3087 382.8723 0.0000 0.0000 -157263.2654 0.0000 -157263.2654 -157263.2654 0.0000 12741.0165 -5741.8797 534946.2959 12741.0165 -5741.8797
ENERGY: 180 268.9406 744.0943 2928.5665 0.0000 -178994.9918 15023.4446 473.2808 0.0000 0.0000 -159556.6650 0.0000 -159556.6650 -159556.6650 0.0000 12521.6266 -6222.7964 534946.2959 12521.6266 -6222.7964
ENERGY: 200 238.8611 694.0986 2941.3601 0.0000 -181556.0349 15586.9987 546.2619 0.0000 0.0000 -161548.4545 0.0000 -161548.4545 -161548.4545 0.0000 12582.6433 -6419.1831 534946.2959 12582.6433 -6419.1831
TCL: Setting parameter constraintScaling to 2.5
TCL: Minimizing for 100 steps
ETITLE: TS BOND ANGLE DIHED IMPRP ELECT VDW BOUNDARY MISC KINETIC TOTAL TEMP POTENTIAL TOTAL3 TEMPAVG PRESSURE GPRESSURE VOLUME PRESSAVG GPRESSAVG
ENERGY: 200 238.8611 694.0986 2941.3601 0.0000 -181556.0350 15586.9987 273.1309 0.0000 0.0000 -161821.5855 0.0000 -161821.5855 -161821.5855 0.0000 13229.5447 -25649.9702 534946.2959 13229.5447 -25649.9702
ENERGY: 220 251.1275 679.9804 2933.0266 0.0000 -182082.9089 15470.8141 338.6137 0.0000 0.0000 -162409.3465 0.0000 -162409.3465 -162409.3465 0.0000 12967.7814 -6089.7177 534946.2959 12967.7814 -6089.7177
ENERGY: 240 139.2720 665.8134 2928.5992 0.0000 -182462.5391 15494.1598 343.6065 0.0000 0.0000 -162891.0883 0.0000 -162891.0883 -162891.0883 0.0000 13034.2633 -6102.5784 534946.2959 13034.2633 -6102.5784
ENERGY: 260 164.7264 683.7410 2921.6214 0.0000 -183940.9353 15800.2268 385.4316 0.0000 0.0000 -163985.1881 0.0000 -163985.1881 -163985.1881 0.0000 13031.8599 -6241.4072 534946.2959 13031.8599 -6241.4072
ENERGY: 280 169.0411 700.9134 2917.6071 0.0000 -185423.3953 16229.1714 454.8090 0.0000 0.0000 -164951.8533 0.0000 -164951.8533 -164951.8533 0.0000 13143.7144 -6333.6348 534946.2959 13143.7144 -6333.6348
ENERGY: 300 126.6718 639.5495 2916.2552 0.0000 -186095.5164 16446.1935 481.3741 0.0000 0.0000 -165485.4722 0.0000 -165485.4722 -165485.4722 0.0000 13207.9353 -6337.8699 534946.2959 13207.9353 -6337.8699
TCL: Setting parameter constraintScaling to 1.25
TCL: Minimizing for 100 steps
ETITLE: TS BOND ANGLE DIHED IMPRP ELECT VDW BOUNDARY MISC KINETIC TOTAL TEMP POTENTIAL TOTAL3 TEMPAVG PRESSURE GPRESSURE VOLUME PRESSAVG GPRESSAVG
ENERGY: 300 126.6718 639.5495 2916.2552 0.0000 -186095.5164 16446.1935 240.6871 0.0000 0.0000 -165726.1593 0.0000 -165726.1593 -165726.1593 0.0000 13656.2863 -26347.9497 534946.2959 13656.2863 -26347.9497
ENERGY: 320 132.0305 624.5855 2911.1540 0.0000 -186666.7858 16580.1921 272.7620 0.0000 0.0000 -166146.0617 0.0000 -166146.0617 -166146.0617 0.0000 13629.7725 -5969.3607 534946.2959 13629.7725 -5969.3607
ENERGY: 340 150.1872 624.5916 2910.6260 0.0000 -187380.2685 16812.3669 296.0565 0.0000 0.0000 -166586.4404 0.0000 -166586.4404 -166586.4404 0.0000 13649.4956 -6005.4466 534946.2959 13649.4956 -6005.4466
ENERGY: 360 317.7517 691.1358 2906.8216 0.0000 -189017.1590 17373.2066 361.1968 0.0000 0.0000 -167367.0465 0.0000 -167367.0465 -167367.0465 0.0000 13878.7117 -6002.2430 534946.2959 13878.7117 -6002.2430
ENERGY: 380 175.2574 658.3621 2901.9152 0.0000 -189834.6054 17694.0124 378.7411 0.0000 0.0000 -168026.3172 0.0000 -168026.3172 -168026.3172 0.0000 13962.6557 -5984.4720 534946.2959 13962.6557 -5984.4720
ENERGY: 400 138.8764 632.6854 2899.7587 0.0000 -190421.4188 17906.5337 392.7048 0.0000 0.0000 -168450.8597 0.0000 -168450.8597 -168450.8597 0.0000 14112.4676 -5920.8506 534946.2959 14112.4676 -5920.8506
TCL: Setting parameter constraintScaling to 0.625
TCL: Minimizing for 100 steps
ETITLE: TS BOND ANGLE DIHED IMPRP ELECT VDW BOUNDARY MISC KINETIC TOTAL TEMP POTENTIAL TOTAL3 TEMPAVG PRESSURE GPRESSURE VOLUME PRESSAVG GPRESSAVG
ENERGY: 400 138.8764 632.6854 2899.7587 0.0000 -190421.4188 17906.5337 196.3524 0.0000 0.0000 -168647.2122 0.0000 -168647.2122 -168647.2122 0.0000 14409.7821 -26605.1349 534946.2959 14409.7821 -26605.1349
ENERGY: 420 146.3232 626.7274 2895.7844 0.0000 -190831.2175 18002.4599 218.3637 0.0000 0.0000 -168941.5588 0.0000 -168941.5588 -168941.5588 0.0000 14338.6024 -5722.2452 534946.2959 14338.6024 -5722.2452
ENERGY: 440 295.8436 645.0954 2893.1186 0.0000 -191342.3265 18167.2631 233.2332 0.0000 0.0000 -169107.7726 0.0000 -169107.7726 -169107.7726 0.0000 14346.9438 -5758.9458 534946.2959 14346.9438 -5758.9458
ENERGY: 460 177.0153 656.2193 2891.1611 0.0000 -192070.7472 18412.7247 256.6758 0.0000 0.0000 -169676.9510 0.0000 -169676.9510 -169676.9510 0.0000 14506.4728 -5716.0955 534946.2959 14506.4728 -5716.0955
ENERGY: 480 176.3378 645.1295 2881.8719 0.0000 -193354.0486 18906.6165 292.9805 0.0000 0.0000 -170451.1124 0.0000 -170451.1124 -170451.1124 0.0000 14661.3019 -5677.0827 534946.2959 14661.3019 -5677.0827
ENERGY: 500 184.6722 648.9844 2885.8453 0.0000 -193789.8602 19075.8201 300.8829 0.0000 0.0000 -170693.6554 0.0000 -170693.6554 -170693.6554 0.0000 14710.0945 -5666.8162 534946.2959 14710.0945 -5666.8162
TCL: Setting parameter constraintScaling to 0.3125
TCL: Minimizing for 100 steps
ETITLE: TS BOND ANGLE DIHED IMPRP ELECT VDW BOUNDARY MISC KINETIC TOTAL TEMP POTENTIAL TOTAL3 TEMPAVG PRESSURE GPRESSURE VOLUME PRESSAVG GPRESSAVG
ENERGY: 500 184.6722 648.9844 2885.8453 0.0000 -193789.8602 19075.8201 150.4415 0.0000 0.0000 -170844.0968 0.0000 -170844.0968 -170844.0968 0.0000 14904.0532 -26905.0583 534946.2959 14904.0532 -26905.0583
ENERGY: 520 345.7943 691.9467 2878.9984 0.0000 -194054.3875 19168.5413 157.9049 0.0000 0.0000 -170811.2020 0.0000 -170811.2020 -170811.2020 0.0000 14980.8540 -5443.9143 534946.2959 14980.8540 -5443.9143
ENERGY: 540 148.0099 643.8535 2874.9846 0.0000 -194354.1967 19265.4531 166.2660 0.0000 0.0000 -171255.6297 0.0000 -171255.6297 -171255.6297 0.0000 15033.8823 -5438.9915 534946.2959 15033.8823 -5438.9915
ENERGY: 560 170.9478 635.7909 2873.8957 0.0000 -194997.5940 19499.7806 180.5908 0.0000 0.0000 -171636.5882 0.0000 -171636.5882 -171636.5882 0.0000 15093.3491 -5435.6950 534946.2959 15093.3491 -5435.6950
ENERGY: 580 154.3246 643.0465 2871.4275 0.0000 -195566.4215 19712.0696 193.4298 0.0000 0.0000 -171992.1235 0.0000 -171992.1235 -171992.1235 0.0000 15175.9436 -5414.0320 534946.2959 15175.9436 -5414.0320
ENERGY: 600 172.1792 650.5799 2866.9896 0.0000 -196540.8306 20082.0467 211.1415 0.0000 0.0000 -172557.8939 0.0000 -172557.8939 -172557.8939 0.0000 15352.5032 -5362.3323 534946.2959 15352.5032 -5362.3323
TCL: Setting parameter constraintScaling to 0.15625
TCL: Minimizing for 100 steps
ETITLE: TS BOND ANGLE DIHED IMPRP ELECT VDW BOUNDARY MISC KINETIC TOTAL TEMP POTENTIAL TOTAL3 TEMPAVG PRESSURE GPRESSURE VOLUME PRESSAVG GPRESSAVG
ENERGY: 600 172.1792 650.5799 2866.9896 0.0000 -196540.8306 20082.0467 105.5707 0.0000 0.0000 -172663.4646 0.0000 -172663.4646 -172663.4646 0.0000 15471.0971 -26982.5158 534946.2959 15471.0971 -26982.5158
ENERGY: 620 513.9584 763.6876 2869.0973 0.0000 -197246.2766 20356.5914 118.4285 0.0000 0.0000 -172624.5133 0.0000 -172624.5133 -172624.5133 0.0000 15543.4776 -5236.3097 534946.2959 15543.4776 -5236.3097
ENERGY: 640 318.0672 708.3713 2867.0823 0.0000 -198207.4642 20719.9326 134.9966 0.0000 0.0000 -173459.0142 0.0000 -173459.0142 -173459.0142 0.0000 15694.2426 -5192.1251 534946.2959 15694.2426 -5192.1251
ENERGY: 660 158.1011 651.5632 2857.1954 0.0000 -198075.4029 20658.1140 131.6538 0.0000 0.0000 -173618.7754 0.0000 -173618.7754 -173618.7754 0.0000 15714.5329 -5174.2011 534946.2959 15714.5329 -5174.2011
ENERGY: 680 286.5515 700.4800 2853.1307 0.0000 -198947.2959 21009.3090 137.6964 0.0000 0.0000 -173960.1283 0.0000 -173960.1283 -173960.1283 0.0000 15884.0033 -5103.2751 534946.2959 15884.0033 -5103.2751
ENERGY: 700 171.0572 661.2359 2849.9502 0.0000 -199751.3391 21318.2881 147.2911 0.0000 0.0000 -174603.5166 0.0000 -174603.5166 -174603.5166 0.0000 16038.6090 -5045.7030 534946.2959 16038.6090 -5045.7030
TCL: Setting parameter constraintScaling to 0.078125
TCL: Minimizing for 100 steps
ETITLE: TS BOND ANGLE DIHED IMPRP ELECT VDW BOUNDARY MISC KINETIC TOTAL TEMP POTENTIAL TOTAL3 TEMPAVG PRESSURE GPRESSURE VOLUME PRESSAVG GPRESSAVG
ENERGY: 700 171.0572 661.2359 2849.9502 0.0000 -199751.3391 21318.2881 73.6455 0.0000 0.0000 -174677.1622 0.0000 -174677.1622 -174677.1622 0.0000 16111.7923 -27114.9283 534946.2959 16111.7923 -27114.9283
ENERGY: 720 169.7242 650.1144 2844.3983 0.0000 -200005.7930 21404.7252 77.6322 0.0000 0.0000 -174859.1986 0.0000 -174859.1986 -174859.1986 0.0000 16126.7997 -4978.2963 534946.2959 16126.7997 -4978.2963
ENERGY: 740 164.2977 659.3804 2842.4911 0.0000 -200260.6954 21494.0362 81.4777 0.0000 0.0000 -175019.0123 0.0000 -175019.0123 -175019.0123 0.0000 16173.4573 -4974.8801 534946.2959 16173.4573 -4974.8801
ENERGY: 760 167.7465 656.5898 2837.8734 0.0000 -200644.5716 21630.1429 85.0710 0.0000 0.0000 -175267.1480 0.0000 -175267.1480 -175267.1480 0.0000 16231.3697 -4962.3773 534946.2959 16231.3697 -4962.3773
ENERGY: 780 160.2302 656.5939 2837.0959 0.0000 -201343.6243 21905.0559 88.0234 0.0000 0.0000 -175696.6250 0.0000 -175696.6250 -175696.6250 0.0000 16419.5754 -4870.8238 534946.2959 16419.5754 -4870.8238
ENERGY: 800 167.0669 659.8532 2833.6137 0.0000 -202049.0347 22196.0701 94.5013 0.0000 0.0000 -176097.9295 0.0000 -176097.9295 -176097.9295 0.0000 16527.9698 -4824.3392 534946.2959 16527.9698 -4824.3392
TCL: Setting parameter constraintScaling to 0.0390625
TCL: Minimizing for 100 steps
ETITLE: TS BOND ANGLE DIHED IMPRP ELECT VDW BOUNDARY MISC KINETIC TOTAL TEMP POTENTIAL TOTAL3 TEMPAVG PRESSURE GPRESSURE VOLUME PRESSAVG GPRESSAVG
ENERGY: 800 167.0669 659.8532 2833.6137 0.0000 -202049.0347 22196.0701 47.2507 0.0000 0.0000 -176145.1801 0.0000 -176145.1801 -176145.1801 0.0000 16570.4175 -27213.5340 534946.2959 16570.4175 -27213.5340
ENERGY: 820 161.8396 653.9684 2828.7073 0.0000 -202234.7639 22261.1603 48.8992 0.0000 0.0000 -176280.1892 0.0000 -176280.1892 -176280.1892 0.0000 16592.6629 -4787.2309 534946.2959 16592.6629 -4787.2309
ENERGY: 840 173.6786 671.3947 2827.6282 0.0000 -202620.3550 22424.2555 52.4697 0.0000 0.0000 -176470.9284 0.0000 -176470.9284 -176470.9284 0.0000 16633.0125 -4778.3635 534946.2959 16633.0125 -4778.3635
ENERGY: 860 189.2455 678.0629 2829.2970 0.0000 -203235.0228 22671.1284 56.1400 0.0000 0.0000 -176811.1490 0.0000 -176811.1490 -176811.1490 0.0000 16737.0370 -4735.4848 534946.2959 16737.0370 -4735.4848
ENERGY: 880 168.8090 660.5297 2821.9827 0.0000 -203397.2295 22724.7371 55.4930 0.0000 0.0000 -176965.6780 0.0000 -176965.6780 -176965.6780 0.0000 16806.3190 -4699.0312 534946.2959 16806.3190 -4699.0312
ENERGY: 900 167.9646 654.4738 2822.7468 0.0000 -203834.3131 22931.1246 55.9450 0.0000 0.0000 -177202.0582 0.0000 -177202.0582 -177202.0582 0.0000 16951.1862 -4616.0121 534946.2959 16951.1862 -4616.0121
TCL: Setting parameter constraintScaling to 0.01953125
TCL: Minimizing for 100 steps
ETITLE: TS BOND ANGLE DIHED IMPRP ELECT VDW BOUNDARY MISC KINETIC TOTAL TEMP POTENTIAL TOTAL3 TEMPAVG PRESSURE GPRESSURE VOLUME PRESSAVG GPRESSAVG
ENERGY: 900 167.9646 654.4738 2822.7468 0.0000 -203834.3131 22931.1246 27.9725 0.0000 0.0000 -177230.0308 0.0000 -177230.0308 -177230.0308 0.0000 16974.9440 -27235.3778 534946.2959 16974.9440 -27235.3778
ENERGY: 920 165.9270 651.7724 2816.7593 0.0000 -204023.4148 22990.6250 29.1506 0.0000 0.0000 -177369.1806 0.0000 -177369.1806 -177369.1806 0.0000 16971.3242 -4615.3440 534946.2959 16971.3242 -4615.3440
ENERGY: 940 258.5615 684.8172 2818.0111 0.0000 -204459.9672 23191.4957 31.2721 0.0000 0.0000 -177475.8096 0.0000 -177475.8096 -177475.8096 0.0000 17024.5300 -4594.4851 534946.2959 17024.5300 -4594.4851
ENERGY: 960 166.5449 658.8994 2814.9440 0.0000 -204378.9004 23145.0012 30.7385 0.0000 0.0000 -177562.7722 0.0000 -177562.7722 -177562.7722 0.0000 17039.0875 -4587.7981 534946.2959 17039.0875 -4587.7981
ENERGY: 980 172.1621 667.3189 2819.7367 0.0000 -204744.5701 23314.0623 31.0571 0.0000 0.0000 -177740.2330 0.0000 -177740.2330 -177740.2330 0.0000 17153.7529 -4518.1386 534946.2959 17153.7529 -4518.1386
ENERGY: 1000 166.5945 659.1944 2814.4614 0.0000 -205011.4401 23424.6508 31.8123 0.0000 0.0000 -177914.7266 0.0000 -177914.7266 -177914.7266 0.0000 17207.6686 -4490.8208 534946.2959 17207.6686 -4490.8208
TCL: Setting parameter constraintScaling to 0
TCL: Minimizing for 5000 steps
ETITLE: TS BOND ANGLE DIHED IMPRP ELECT VDW BOUNDARY MISC KINETIC TOTAL TEMP POTENTIAL TOTAL3 TEMPAVG PRESSURE GPRESSURE VOLUME PRESSAVG GPRESSAVG
ENERGY: 1000 166.5945 659.1944 2814.4614 0.0000 -205011.4401 23424.6508 0.0000 0.0000 0.0000 -177946.5389 0.0000 -177946.5389 -177946.5389 0.0000 17233.4323 -27256.5237 534946.2959 17233.4323 -27256.5237
ENERGY: 2000 168.8637 665.9722 2801.6069 0.0000 -214518.0978 27651.6081 0.0000 0.0000 0.0000 -183230.0469 0.0000 -183230.0469 -183230.0469 0.0000 19457.2022 -3309.5204 534946.2959 19457.2022 -3309.5204
ENERGY: 3000 168.5484 667.4800 2794.2196 0.0000 -217302.6509 28841.9561 0.0000 0.0000 0.0000 -184830.4468 0.0000 -184830.4468 -184830.4468 0.0000 20089.7654 -2978.8403 534946.2959 20089.7654 -2978.8403
ENERGY: 4000 165.8451 665.9996 2787.0376 0.0000 -218658.4744 29349.3047 0.0000 0.0000 0.0000 -185690.2874 0.0000 -185690.2874 -185690.2874 0.0000 20359.9869 -2845.5110 534946.2959 20359.9869 -2845.5110
ENERGY: 5000 165.9725 666.3555 2782.4809 0.0000 -219456.4518 29687.0220 0.0000 0.0000 0.0000 -186154.6209 0.0000 -186154.6209 -186154.6209 0.0000 20533.6571 -2747.2278 534946.2959 20533.6571 -2747.2278
ENERGY: 6000 166.3381 665.7725 2785.5598 0.0000 -219896.2581 29869.0900 0.0000 0.0000 0.0000 -186409.4978 0.0000 -186409.4978 -186409.4978 0.0000 20629.3715 -2699.5363 534946.2959 20629.3715 -2699.5363
