Info: SIMULATION PARAMETERS:
Info: TIMESTEP               1
Info: NUMBER OF STEPS        0
Info: STEPS PER CYCLE        10
Info: PERIODIC CELL BASIS 1  72.449 0 0
Info: PERIODIC CELL BASIS 2  0 93.247 0
Info: PERIODIC CELL BASIS 3  0 0 79.185
Info: PERIODIC CELL CENTER   -0.248 -0.156 -0.047
Info: WRAPPING WATERS AROUND PERIODIC BOUNDARIES ON OUTPUT.
Info: WRAPPING ALL CLUSTERS AROUND PERIODIC BOUNDARIES ON OUTPUT.
Info: FIRST LDB TIMESTEP     50
Info: LAST LDB TIMESTEP     -1
Info: HOM BACKGROUND SCALING 1
Info: PME BACKGROUND SCALING 1
Info: MIN ATOMS PER PATCH    40
Info: VELOCITY FILE          ../replicas/rep126/equilibration/eq1.vel
Info: CENTER OF MASS MOVING INITIALLY? NO
Info: DIELECTRIC             1
Info: EXCLUDE                SCALED ONE-FOUR
Info: 1-4 ELECTROSTATICS SCALED BY 0.833333
Info: MODIFIED 1-4 VDW PARAMETERS WILL BE USED
Info: DCD FILENAME           ../replicas/rep126/equilibration/eq2.dcd
Info: DCD FREQUENCY          5000
Info: DCD FIRST STEP         5000
Info: DCD FILE WILL CONTAIN UNIT CELL DATA
Info: XST FILENAME           ../replicas/rep126/equilibration/eq2.xst
Info: XST FREQUENCY          5000
Info: NO VELOCITY DCD OUTPUT
Info: NO FORCE DCD OUTPUT
Info: OUTPUT FILENAME        ../replicas/rep126/equilibration/eq2
Info: RESTART FILENAME       ../replicas/rep126/equilibration/eq2.restart
Info: RESTART FREQUENCY      5000
Info: BINARY RESTART FILES WILL BE USED
Info: SWITCHING ACTIVE
Info: SWITCHING ON           10
Info: SWITCHING OFF          12
Info: PAIRLIST DISTANCE      13.5
Info: PAIRLIST SHRINK RATE   0.01
Info: PAIRLIST GROW RATE     0.01
Info: PAIRLIST TRIGGER       0.3
Info: PAIRLISTS PER CYCLE    2
Info: PAIRLISTS ENABLED
Info: MARGIN                 0.48
Info: HYDROGEN GROUP CUTOFF  2.5
Info: PATCH DIMENSION        16.48
Info: ENERGY OUTPUT STEPS    500
Info: CROSSTERM ENERGY INCLUDED IN DIHEDRAL
Info: TIMING OUTPUT STEPS    5000
Info: PRESSURE OUTPUT STEPS  500
Info: HARMONIC CONSTRAINTS ACTIVE
Info: HARMONIC CONS EXP      2
Info: HARMONIC CONS SCALING  10
Info: LANGEVIN DYNAMICS ACTIVE
Info: LANGEVIN TEMPERATURE   300
Info: LANGEVIN USING BBK INTEGRATOR
Info: LANGEVIN DAMPING COEFFICIENT IS 5 INVERSE PS
Info: LANGEVIN DYNAMICS NOT APPLIED TO HYDROGENS
Info: BERENDSEN PRESSURE COUPLING ACTIVE
Info:     TARGET PRESSURE IS 1 BAR
Info:     COMPRESSIBILITY ESTIMATE IS 4.57e-05 BAR^(-1)
Info:     RELAXATION TIME IS 100 FS
Info:     APPLIED EVERY 2 STEPS
Info:     PRESSURE CONTROL IS GROUP-BASED
Info:       CELL FLUCTUATION IS ISOTROPIC
Info: PARTICLE MESH EWALD (PME) ACTIVE
Info: PME TOLERANCE               1e-06
Info: PME EWALD COEFFICIENT       0.257952
Info: PME INTERPOLATION ORDER     4
Info: PME GRID DIMENSIONS         80 96 80
Info: PME MAXIMUM GRID SPACING    1
Info: FULL ELECTROSTATIC EVALUATION FREQUENCY      2
Info: USING VERLET I (r-RESPA) MTS SCHEME.
Info: C1 SPLITTING OF LONG RANGE ELECTROSTATICS
Info: PLACING ATOMS IN PATCHES BY HYDROGEN GROUPS
Info: RIGID BONDS TO HYDROGEN : WATER
Info:         ERROR TOLERANCE : 1e-05
Info:          MAX ITERATIONS : 100
Info: RIGID WATER USING SETTLE ALGORITHM
Info: RANDOM NUMBER SEED     1503700782
Info: USE HYDROGEN BONDS?    NO
Info: Using AMBER format force field!
Info: AMBER PARM FILE        ../build/complex.top
Info: COORDINATE PDB         ../replicas/rep126/equilibration/eq1.coor
Info: Exclusions in PARM file will be ignored!
Info: SCNB (VDW SCALING)     2
Info: USING ARITHMETIC MEAN TO COMBINE L-J SIGMA PARAMETERS
Info: SUMMARY OF PARAMETERS:
Info: 71 BONDS
Info: 145 ANGLES
Info:   145 HARMONIC
Info:   0 COSINE-BASED
Info: 76 DIHEDRAL
Info: 0 IMPROPER
Info: 0 CROSSTERM
Info: 0 VDW
Info: 190 VDW_PAIRS
Info: 0 NBTHOLE_PAIRS
Info: STRUCTURE SUMMARY:
Info: 49394 ATOMS
Info: 49448 BONDS
Info: 8698 ANGLES
Info: 18780 DIHEDRALS
Info: 0 IMPROPERS
Info: 0 CROSSTERMS
Info: 0 EXCLUSIONS
Info: 2336 CONSTRAINTS
Info: 44667 RIGID BONDS
Info: 103515 DEGREES OF FREEDOM
Info: 17225 HYDROGEN GROUPS
Info: 4 ATOMS IN LARGEST HYDROGEN GROUP
Info: 17225 MIGRATION GROUPS
Info: 4 ATOMS IN LARGEST MIGRATION GROUP
Info: TOTAL MASS = 301478 amu
Info: TOTAL CHARGE = 1.00115e-05 e
Info: MASS DENSITY = 0.935846 g/cm^3
Info: ATOM DENSITY = 0.0923345 atoms/A^3
Info: ADDED 70656 IMPLICIT EXCLUSIONS
Info: NONBONDED TABLE R-SQUARED SPACING: 0.0625
Info: NONBONDED TABLE SIZE: 769 POINTS
Info: REMOVING COM VELOCITY -0.00640105 0.0203631 -0.0389787
TCL: Running for 5000 steps
ETITLE: TS BOND ANGLE DIHED IMPRP ELECT VDW BOUNDARY MISC KINETIC TOTAL TEMP POTENTIAL TOTAL3 TEMPAVG PRESSURE GPRESSURE VOLUME PRESSAVG GPRESSAVG
ENERGY: 0 379.3857 1236.4307 2911.1435 0.0000 -212977.9503 29752.0720 0.0000 0.0000 10090.9937 -168607.9247 98.1118 -178698.9183 -168598.1678 98.1118 -2267.7826 -2365.3736 534946.2959 -2267.7826 -2365.3736
ENERGY: 1000 1271.2791 1996.2700 3094.2273 0.0000 -193788.1412 26385.7727 784.4442 0.0000 24292.2568 -135963.8911 236.1864 -160256.1479 -135933.6682 219.1017 -76.2694 -36.7303 522223.4241 -16.1509 -16.3840
ENERGY: 2000 1473.2843 2148.5834 3090.3467 0.0000 -184684.5141 23643.7661 798.7497 0.0000 27592.9308 -125936.8530 268.2779 -153529.7839 -125908.4012 262.2076 35.5902 6.4184 514592.0535 -24.0979 -24.5270
ENERGY: 3000 1520.8258 2189.5152 3124.3861 0.0000 -179371.0869 21629.5016 797.9330 0.0000 29345.4415 -120763.4837 285.3171 -150108.9252 -120723.7491 283.3747 -74.8143 -28.8809 510503.4853 -23.9376 -24.0255
ENERGY: 4000 1505.2415 2266.2690 3138.3049 0.0000 -177655.1191 21053.7068 798.5642 0.0000 30329.4160 -118563.6167 294.8840 -148893.0327 -118517.9829 291.9370 -31.6566 -20.8913 507144.2665 -11.8294 -11.9227
ENERGY: 5000 1549.8485 2236.6472 3138.6884 0.0000 -176662.1876 20472.4447 806.7782 0.0000 30441.1908 -118016.5896 295.9707 -148457.7805 -117987.3083 295.1654 16.8200 -13.4316 504436.6590 -6.8879 -7.1879
TCL: Setting parameter constraintScaling to 5.0
TCL: Running for 5000 steps
ETITLE: TS BOND ANGLE DIHED IMPRP ELECT VDW BOUNDARY MISC KINETIC TOTAL TEMP POTENTIAL TOTAL3 TEMPAVG PRESSURE GPRESSURE VOLUME PRESSAVG GPRESSAVG
ENERGY: 5000 1549.8485 2236.6472 3138.6884 0.0000 -176662.1876 20472.4447 403.3891 0.0000 30439.1339 -118422.0357 295.9507 -148861.1696 -118374.9343 295.9507 -74.9417 -97.3957 504436.6590 -74.9417 -97.3957
ENERGY: 6000 1637.6821 2318.1376 3153.5981 0.0000 -175896.4571 20409.7180 625.5651 0.0000 30582.6684 -117169.0879 297.3463 -147751.7563 -117132.6180 296.8843 -98.8900 -20.6831 505216.7560 9.2993 9.4315
ENERGY: 7000 1617.6998 2306.4660 3147.7014 0.0000 -175313.4900 19983.9432 633.0333 0.0000 30711.4914 -116913.1548 298.5988 -147624.6462 -116867.2282 298.7119 -4.5492 20.5867 502989.3988 1.8374 1.6433
ENERGY: 8000 1620.8811 2287.9778 3162.8176 0.0000 -175377.0825 19934.2674 618.2495 0.0000 30811.9051 -116940.9840 299.5751 -147752.8891 -116903.4695 299.8134 -53.7535 9.1431 501873.6093 2.7526 2.5206
ENERGY: 9000 1570.2554 2331.4270 3159.5457 0.0000 -175035.5112 19826.4758 641.6846 0.0000 30599.4416 -116906.6811 297.5093 -147506.1227 -116854.2921 300.0423 -17.8727 -26.8660 501991.3850 -0.5138 -1.1915
ENERGY: 10000 1613.7128 2303.1797 3171.9143 0.0000 -175506.9948 20092.8798 652.0136 0.0000 30716.7822 -116956.5124 298.6502 -147673.2946 -116908.1561 299.7394 -34.2184 17.7812 500544.4890 -1.9622 -1.7911
TCL: Setting parameter constraintScaling to 2.5
TCL: Running for 5000 steps
ETITLE: TS BOND ANGLE DIHED IMPRP ELECT VDW BOUNDARY MISC KINETIC TOTAL TEMP POTENTIAL TOTAL3 TEMPAVG PRESSURE GPRESSURE VOLUME PRESSAVG GPRESSAVG
ENERGY: 10000 1613.7128 2303.1797 3171.9143 0.0000 -175506.9948 20092.8798 326.0068 0.0000 30714.7144 -117284.5871 298.6301 -147999.3014 -117241.8722 298.6301 -121.4896 -64.6002 500544.4890 -121.4896 -64.6002
ENERGY: 11000 1646.4390 2306.4257 3175.4052 0.0000 -175666.6148 20017.9257 495.9033 0.0000 30809.2457 -117215.2702 299.5492 -148024.5158 -117163.0542 298.8023 46.0353 51.4716 500253.8444 8.7488 8.9534
ENERGY: 12000 1587.5264 2340.7751 3173.5800 0.0000 -175617.2588 20011.6320 504.9102 0.0000 30736.3472 -117262.4879 298.8404 -147998.8350 -117222.2372 298.3016 29.8603 -22.4991 499960.4313 -6.6485 -6.8704
ENERGY: 13000 1653.2729 2385.0011 3174.0299 0.0000 -176015.5463 20324.9019 514.8219 0.0000 30765.0251 -117198.4935 299.1193 -147963.5186 -117165.0546 298.4154 -69.4313 -40.9983 498125.7656 -14.1656 -13.8069
ENERGY: 14000 1620.9158 2361.0087 3174.6536 0.0000 -175472.9365 19982.4570 506.5295 0.0000 30900.4979 -116926.8740 300.4364 -147827.3719 -116886.1956 299.4327 -3.8153 -6.9807 500235.8362 5.0672 5.1703
ENERGY: 15000 1609.3370 2292.3309 3192.5314 0.0000 -175646.5938 20090.8601 519.3528 0.0000 30765.5345 -117176.6470 299.1242 -147942.1815 -117136.2199 300.0808 7.6651 40.3673 500082.0569 -5.1985 -4.7751
TCL: Setting parameter constraintScaling to 1.25
TCL: Running for 5000 steps
ETITLE: TS BOND ANGLE DIHED IMPRP ELECT VDW BOUNDARY MISC KINETIC TOTAL TEMP POTENTIAL TOTAL3 TEMPAVG PRESSURE GPRESSURE VOLUME PRESSAVG GPRESSAVG
ENERGY: 15000 1609.3370 2292.3309 3192.5314 0.0000 -175646.5938 20090.8601 259.6764 0.0000 30763.4954 -117438.3625 299.1044 -148201.8579 -117395.5811 299.1044 -32.6938 1.3984 500082.0569 -32.6938 1.3984
ENERGY: 16000 1587.5059 2395.6959 3184.3583 0.0000 -175200.7484 19799.9837 382.2841 0.0000 30905.5049 -116945.4156 300.4851 -147850.9205 -116902.2097 300.3181 6.5033 -50.5501 500860.9851 2.1789 2.0228
ENERGY: 17000 1623.2416 2404.1443 3198.6811 0.0000 -175640.8051 20159.1260 424.7174 0.0000 31119.3590 -116711.5357 302.5643 -147830.8947 -116666.8254 300.8669 41.2427 -30.9958 499717.5040 -6.6692 -6.8681
ENERGY: 18000 1661.2823 2357.2346 3215.3850 0.0000 -175252.1069 19883.8930 394.5130 0.0000 30899.2621 -116840.5369 300.4244 -147739.7990 -116803.5408 301.1482 -12.9163 -15.2638 500024.1595 5.7200 5.2765
ENERGY: 19000 1622.1389 2386.7940 3188.3806 0.0000 -175589.6043 20046.6115 392.5185 0.0000 30816.3351 -117136.8257 299.6181 -147953.1608 -117103.9896 300.7609 -43.7806 -35.1878 498611.1306 -12.5345 -13.1277
ENERGY: 20000 1589.3618 2390.6632 3208.6897 0.0000 -175652.0282 20179.7421 398.0122 0.0000 30831.7730 -117053.7861 299.7682 -147885.5591 -117015.7137 300.6140 -41.2955 86.2252 499949.6505 0.9666 1.8092
TCL: Setting parameter constraintScaling to 0.625
TCL: Running for 5000 steps
ETITLE: TS BOND ANGLE DIHED IMPRP ELECT VDW BOUNDARY MISC KINETIC TOTAL TEMP POTENTIAL TOTAL3 TEMPAVG PRESSURE GPRESSURE VOLUME PRESSAVG GPRESSAVG
ENERGY: 20000 1589.3618 2390.6632 3208.6897 0.0000 -175652.0282 20179.7421 199.0061 0.0000 30829.7291 -117254.8362 299.7484 -148084.5652 -117209.5438 299.7484 -66.8375 71.9727 499949.6505 -66.8375 71.9727
ENERGY: 21000 1602.8929 2385.2159 3179.5726 0.0000 -175337.4768 19981.0299 301.3262 0.0000 30879.4995 -117007.9398 300.2323 -147887.4393 -116971.8952 300.2064 11.3067 -29.8961 500104.9404 7.0709 6.8045
ENERGY: 22000 1659.3395 2416.5329 3184.7593 0.0000 -175767.5693 20256.0934 305.7072 0.0000 31125.5303 -116819.6068 302.6243 -147945.1370 -116778.4103 300.3113 -129.0197 -64.3001 499546.8992 8.3063 8.4454
ENERGY: 23000 1632.4111 2366.4251 3214.0787 0.0000 -175757.0203 20115.4888 306.3725 0.0000 30973.0695 -117149.1745 301.1420 -148122.2441 -117118.7528 301.4413 -83.0959 26.1465 500292.9707 10.1855 10.4209
ENERGY: 24000 1657.7755 2428.4779 3181.9463 0.0000 -176032.1289 20033.9377 310.0418 0.0000 30876.9476 -117543.0020 300.2074 -148419.9496 -117500.2338 299.6009 -84.0153 -20.2178 497139.7533 -5.2142 -5.6872
ENERGY: 25000 1631.3558 2416.3473 3188.4333 0.0000 -176052.8995 20227.8450 348.0030 0.0000 31081.9372 -117158.9779 302.2005 -148240.9151 -117118.5810 299.9918 -106.3470 -12.0331 498248.8046 10.5042 10.6811
TCL: Setting parameter constraintScaling to 0.3125
TCL: Running for 5000 steps
ETITLE: TS BOND ANGLE DIHED IMPRP ELECT VDW BOUNDARY MISC KINETIC TOTAL TEMP POTENTIAL TOTAL3 TEMPAVG PRESSURE GPRESSURE VOLUME PRESSAVG GPRESSAVG
ENERGY: 25000 1631.3558 2416.3473 3188.4333 0.0000 -176052.8995 20227.8450 174.0015 0.0000 31079.9050 -117335.0115 302.1807 -148414.9165 -117296.9206 302.1807 -63.9250 28.2200 498248.8046 -63.9250 28.2200
ENERGY: 26000 1692.1914 2408.1806 3211.3266 0.0000 -175953.4420 20247.3659 258.5686 0.0000 30586.2642 -117549.5446 297.3812 -148135.8089 -117498.2385 299.3468 -126.9169 -4.7589 499532.6385 0.6263 0.8923
ENERGY: 27000 1614.5228 2414.6368 3198.2339 0.0000 -176086.9493 20338.4776 256.9519 0.0000 30893.7519 -117370.3746 300.3708 -148264.1264 -117327.3764 299.4235 95.4493 81.4717 498127.4486 -3.8319 -4.2199
ENERGY: 28000 1611.2157 2344.9173 3164.3341 0.0000 -176327.4640 20212.6249 265.7272 0.0000 30619.5587 -118109.0861 297.7049 -148728.6448 -118061.4273 298.2921 40.7687 51.4852 496873.6479 -6.2036 -6.1012
ENERGY: 29000 1603.9665 2400.2469 3225.2999 0.0000 -176286.8250 20415.9316 271.6972 0.0000 30640.3097 -117729.3732 297.9067 -148369.6830 -117687.5272 298.9143 22.6188 116.4619 496929.8785 3.3827 3.1657
ENERGY: 30000 1605.5191 2420.0103 3222.8839 0.0000 -176100.3816 19977.1065 258.3858 0.0000 30697.0342 -117919.4418 298.4582 -148616.4759 -117871.4681 299.5803 58.6658 79.4937 496052.3394 -2.4041 -2.2761
TCL: Setting parameter constraintScaling to 0.15625
TCL: Running for 5000 steps
ETITLE: TS BOND ANGLE DIHED IMPRP ELECT VDW BOUNDARY MISC KINETIC TOTAL TEMP POTENTIAL TOTAL3 TEMPAVG PRESSURE GPRESSURE VOLUME PRESSAVG GPRESSAVG
ENERGY: 30000 1605.5191 2420.0103 3222.8839 0.0000 -176100.3816 19977.1065 129.1929 0.0000 30694.9875 -118050.6813 298.4383 -148745.6688 -118007.5535 298.4383 4.8187 33.8489 496052.3394 4.8187 33.8489
ENERGY: 31000 1668.5252 2384.0922 3216.4029 0.0000 -176181.2701 20243.9965 189.9557 0.0000 30839.7352 -117638.5625 299.8456 -148478.2976 -117604.1438 299.6448 -141.9857 -47.5009 496990.2287 5.3859 5.1938
ENERGY: 32000 1647.7351 2443.8264 3226.7931 0.0000 -175572.0006 20045.8328 203.6331 0.0000 30779.4790 -117224.7012 299.2598 -148004.1803 -117174.8263 300.2410 -53.2193 -19.1146 497224.7633 3.5315 3.5942
ENERGY: 33000 1627.9844 2432.5472 3195.9412 0.0000 -175700.3391 19944.1156 207.5789 0.0000 30773.8273 -117518.3444 299.2048 -148292.1717 -117473.1194 299.8176 3.8896 36.5565 496997.9028 7.2979 7.4310
ENERGY: 34000 1569.3942 2399.2112 3216.0177 0.0000 -175718.6279 20041.0511 187.1184 0.0000 30847.5502 -117458.2851 299.9216 -148305.8352 -117412.1992 300.4065 25.4007 44.2312 497495.8680 -8.2221 -7.3978
ENERGY: 35000 1605.8083 2379.0224 3197.3553 0.0000 -176054.4531 20073.8004 216.7294 0.0000 30714.7515 -117866.9860 298.6305 -148581.7375 -117825.2283 299.3382 -40.2370 24.6872 496061.6868 -10.1547 -9.8457
TCL: Setting parameter constraintScaling to 0.078125
TCL: Running for 5000 steps
ETITLE: TS BOND ANGLE DIHED IMPRP ELECT VDW BOUNDARY MISC KINETIC TOTAL TEMP POTENTIAL TOTAL3 TEMPAVG PRESSURE GPRESSURE VOLUME PRESSAVG GPRESSAVG
ENERGY: 35000 1605.8083 2379.0224 3197.3553 0.0000 -176054.4531 20073.8004 108.3647 0.0000 30712.7251 -117977.3770 298.6108 -148690.1021 -117933.0486 298.6108 -43.1676 16.6738 496061.6868 -43.1676 16.6738
ENERGY: 36000 1695.3126 2410.8286 3184.0284 0.0000 -176308.8831 20231.5646 157.6842 0.0000 30814.1832 -117815.2816 299.5972 -148629.4647 -117778.4713 299.7617 134.7632 66.8714 496287.8451 1.5448 1.4433
ENERGY: 37000 1653.1526 2371.2285 3223.4094 0.0000 -175725.0421 19963.0249 161.0561 0.0000 30932.2568 -117420.9139 300.7452 -148353.1708 -117379.6986 299.6569 45.5920 87.4054 497454.9658 15.7358 15.4484
ENERGY: 38000 1633.9637 2417.8876 3221.0763 0.0000 -176256.0277 20339.5302 169.6906 0.0000 30655.3127 -117818.5665 298.0526 -148473.8792 -117783.9687 299.4175 -67.6273 42.7103 497366.5769 1.0484 1.7806
ENERGY: 39000 1632.3854 2399.6318 3197.0421 0.0000 -175562.2155 20099.2875 168.5874 0.0000 30887.6575 -117177.6238 300.3116 -148065.2813 -117133.6342 300.4163 -48.4130 64.3650 499119.7273 12.9322 13.4861
ENERGY: 40000 1648.8399 2405.1334 3200.0343 0.0000 -175328.9693 19785.4312 163.2515 0.0000 30940.5242 -117185.7549 300.8256 -148126.2791 -117142.9561 300.6617 -95.0415 -39.8273 498348.7892 -12.9358 -13.0888
TCL: Setting parameter constraintScaling to 0.0390625
TCL: Running for 5000 steps
ETITLE: TS BOND ANGLE DIHED IMPRP ELECT VDW BOUNDARY MISC KINETIC TOTAL TEMP POTENTIAL TOTAL3 TEMPAVG PRESSURE GPRESSURE VOLUME PRESSAVG GPRESSAVG
ENERGY: 40000 1648.8399 2405.1334 3200.0343 0.0000 -175328.9693 19785.4312 81.6257 0.0000 30938.4512 -117269.4537 300.8054 -148207.9048 -117225.5672 300.8054 -137.7081 -74.4020 498348.7892 -137.7081 -74.4020
ENERGY: 41000 1607.4824 2421.8016 3236.2640 0.0000 -175784.2147 20085.6065 106.1758 0.0000 30835.5415 -117491.3429 299.8049 -148326.8844 -117447.9240 300.7751 -31.2218 32.7098 496777.4102 -15.0034 -15.4789
ENERGY: 42000 1682.7606 2395.8480 3183.0418 0.0000 -176206.7117 20234.8177 125.3420 0.0000 30604.1753 -117980.7264 297.5554 -148584.9017 -117936.7220 298.0814 -13.0919 -37.5648 497746.0700 7.6325 7.3002
ENERGY: 43000 1613.7262 2357.8068 3182.8266 0.0000 -175573.8443 19815.9347 123.4463 0.0000 30790.0712 -117690.0324 299.3628 -148480.1036 -117647.8714 298.8199 60.9744 9.4681 495874.1819 -11.9848 -12.0341
ENERGY: 44000 1620.3841 2338.7298 3223.5918 0.0000 -175985.7281 20010.5393 114.1928 0.0000 30735.0263 -117943.2642 298.8276 -148678.2905 -117901.9854 298.3446 -20.6339 28.4533 496920.6750 3.5822 3.1433
ENERGY: 45000 1587.8068 2410.5100 3193.5044 0.0000 -176460.3854 20367.4989 116.1773 0.0000 30763.6061 -118021.2820 299.1055 -148784.8881 -117980.4753 298.7997 -40.9513 -20.9378 497302.0668 4.5445 4.4205
TCL: Setting parameter constraintScaling to 0.01953125
TCL: Running for 5000 steps
ETITLE: TS BOND ANGLE DIHED IMPRP ELECT VDW BOUNDARY MISC KINETIC TOTAL TEMP POTENTIAL TOTAL3 TEMPAVG PRESSURE GPRESSURE VOLUME PRESSAVG GPRESSAVG
ENERGY: 45000 1587.8068 2410.5100 3193.5044 0.0000 -176460.3854 20367.4989 58.0887 0.0000 30761.5380 -118081.4388 299.0854 -148842.9768 -118037.9933 299.0854 -45.7130 -29.9054 497302.0668 -45.7130 -29.9054
ENERGY: 46000 1611.8569 2408.5162 3150.4782 0.0000 -176560.7179 20357.1853 77.7690 0.0000 30542.4603 -118412.4520 296.9553 -148954.9123 -118368.2249 296.9466 17.3522 110.4932 496416.1044 -5.5179 -5.5682
ENERGY: 47000 1612.6007 2361.1411 3219.3700 0.0000 -176406.4290 20167.3535 81.1038 0.0000 30934.6296 -118030.2302 300.7683 -148964.8598 -117980.5812 298.3216 -83.7333 -23.7089 496804.6144 5.6068 5.2610
ENERGY: 48000 1600.1424 2418.1734 3195.5060 0.0000 -176142.5230 20066.4018 88.9842 0.0000 30602.3537 -118170.9615 297.5376 -148773.3152 -118137.9213 298.2449 -192.9913 -71.7205 497711.9586 13.2830 13.7255
ENERGY: 49000 1608.5299 2413.6601 3175.7191 0.0000 -175858.6992 20015.5789 87.6399 0.0000 30657.6528 -117899.9185 298.0753 -148557.5712 -117861.8471 298.8735 -41.2918 -18.5513 496481.0589 -1.9679 -2.7204
ENERGY: 50000 1625.7857 2377.1154 3176.7774 0.0000 -175842.7133 20022.5245 93.1046 0.0000 30791.4745 -117755.9311 299.3764 -148547.4056 -117707.2796 299.2427 -66.3117 -62.7013 496540.6592 2.3526 2.2090
TCL: Setting parameter constraintScaling to 0
TCL: Running for 5000 steps
ETITLE: TS BOND ANGLE DIHED IMPRP ELECT VDW BOUNDARY MISC KINETIC TOTAL TEMP POTENTIAL TOTAL3 TEMPAVG PRESSURE GPRESSURE VOLUME PRESSAVG GPRESSAVG
ENERGY: 50000 1625.7857 2377.1154 3176.7774 0.0000 -175842.7133 20022.5245 0.0000 0.0000 30789.3861 -117851.1242 299.3561 -148640.5102 -117812.0612 299.3561 -76.6454 -67.0979 496540.6592 -76.6454 -67.0979
ENERGY: 51000 1624.2312 2461.8645 3249.7349 0.0000 -176205.1639 20072.8336 0.0000 0.0000 30966.2501 -117830.2497 301.0757 -148796.4997 -117785.5729 299.4637 -63.4687 -47.3297 494687.6646 -6.3117 -6.0795
ENERGY: 52000 1668.1339 2383.8169 3209.1428 0.0000 -176085.5521 20104.7774 0.0000 0.0000 31019.2718 -117700.4093 301.5912 -148719.6811 -117656.2947 300.5378 -60.2681 -26.6609 496815.5244 -7.4856 -6.9319
ENERGY: 53000 1656.6814 2347.7341 3193.1780 0.0000 -175792.2784 19959.5944 0.0000 0.0000 30835.2625 -117799.8279 299.8022 -148635.0904 -117759.9413 299.5578 8.9283 -14.5113 495521.5855 -7.1256 -7.2191
ENERGY: 54000 1652.1491 2459.2500 3201.7550 0.0000 -175667.5807 20037.7069 0.0000 0.0000 31009.4999 -117307.2197 301.4962 -148316.7196 -117266.5363 300.8087 57.3760 49.9977 496421.5418 -0.9964 -1.3080
ENERGY: 55000 1630.1796 2353.8515 3176.8957 0.0000 -175775.2339 19875.5578 0.0000 0.0000 30832.4557 -117906.2937 299.7749 -148738.7493 -117857.9330 299.9263 -43.3092 -12.7963 495541.4802 -13.1456 -12.9675
