Info: SIMULATION PARAMETERS:
Info: TIMESTEP               1
Info: NUMBER OF STEPS        0
Info: STEPS PER CYCLE        10
Info: PERIODIC CELL BASIS 1  72.449 0 0
Info: PERIODIC CELL BASIS 2  0 93.247 0
Info: PERIODIC CELL BASIS 3  0 0 79.185
Info: PERIODIC CELL CENTER   -0.248 -0.156 -0.047
Info: WRAPPING WATERS AROUND PERIODIC BOUNDARIES ON OUTPUT.
Info: WRAPPING ALL CLUSTERS AROUND PERIODIC BOUNDARIES ON OUTPUT.
Info: FIRST LDB TIMESTEP     50
Info: LAST LDB TIMESTEP     -1
Info: HOM BACKGROUND SCALING 1
Info: PME BACKGROUND SCALING 1
Info: MIN ATOMS PER PATCH    40
Info: VELOCITY FILE          ../replicas/rep24/equilibration/eq1.vel
Info: CENTER OF MASS MOVING INITIALLY? NO
Info: DIELECTRIC             1
Info: EXCLUDE                SCALED ONE-FOUR
Info: 1-4 ELECTROSTATICS SCALED BY 0.833333
Info: MODIFIED 1-4 VDW PARAMETERS WILL BE USED
Info: DCD FILENAME           ../replicas/rep24/equilibration/eq2.dcd
Info: DCD FREQUENCY          5000
Info: DCD FIRST STEP         5000
Info: DCD FILE WILL CONTAIN UNIT CELL DATA
Info: XST FILENAME           ../replicas/rep24/equilibration/eq2.xst
Info: XST FREQUENCY          5000
Info: NO VELOCITY DCD OUTPUT
Info: NO FORCE DCD OUTPUT
Info: OUTPUT FILENAME        ../replicas/rep24/equilibration/eq2
Info: RESTART FILENAME       ../replicas/rep24/equilibration/eq2.restart
Info: RESTART FREQUENCY      5000
Info: BINARY RESTART FILES WILL BE USED
Info: SWITCHING ACTIVE
Info: SWITCHING ON           10
Info: SWITCHING OFF          12
Info: PAIRLIST DISTANCE      13.5
Info: PAIRLIST SHRINK RATE   0.01
Info: PAIRLIST GROW RATE     0.01
Info: PAIRLIST TRIGGER       0.3
Info: PAIRLISTS PER CYCLE    2
Info: PAIRLISTS ENABLED
Info: MARGIN                 0.48
Info: HYDROGEN GROUP CUTOFF  2.5
Info: PATCH DIMENSION        16.48
Info: ENERGY OUTPUT STEPS    500
Info: CROSSTERM ENERGY INCLUDED IN DIHEDRAL
Info: TIMING OUTPUT STEPS    5000
Info: PRESSURE OUTPUT STEPS  500
Info: HARMONIC CONSTRAINTS ACTIVE
Info: HARMONIC CONS EXP      2
Info: HARMONIC CONS SCALING  10
Info: LANGEVIN DYNAMICS ACTIVE
Info: LANGEVIN TEMPERATURE   300
Info: LANGEVIN USING BBK INTEGRATOR
Info: LANGEVIN DAMPING COEFFICIENT IS 5 INVERSE PS
Info: LANGEVIN DYNAMICS NOT APPLIED TO HYDROGENS
Info: BERENDSEN PRESSURE COUPLING ACTIVE
Info:     TARGET PRESSURE IS 1 BAR
Info:     COMPRESSIBILITY ESTIMATE IS 4.57e-05 BAR^(-1)
Info:     RELAXATION TIME IS 100 FS
Info:     APPLIED EVERY 2 STEPS
Info:     PRESSURE CONTROL IS GROUP-BASED
Info:       CELL FLUCTUATION IS ISOTROPIC
Info: PARTICLE MESH EWALD (PME) ACTIVE
Info: PME TOLERANCE               1e-06
Info: PME EWALD COEFFICIENT       0.257952
Info: PME INTERPOLATION ORDER     4
Info: PME GRID DIMENSIONS         80 96 80
Info: PME MAXIMUM GRID SPACING    1
Info: FULL ELECTROSTATIC EVALUATION FREQUENCY      2
Info: USING VERLET I (r-RESPA) MTS SCHEME.
Info: C1 SPLITTING OF LONG RANGE ELECTROSTATICS
Info: PLACING ATOMS IN PATCHES BY HYDROGEN GROUPS
Info: RIGID BONDS TO HYDROGEN : WATER
Info:         ERROR TOLERANCE : 1e-05
Info:          MAX ITERATIONS : 100
Info: RIGID WATER USING SETTLE ALGORITHM
Info: RANDOM NUMBER SEED     1503704726
Info: USE HYDROGEN BONDS?    NO
Info: Using AMBER format force field!
Info: AMBER PARM FILE        ../build/complex.top
Info: COORDINATE PDB         ../replicas/rep24/equilibration/eq1.coor
Info: Exclusions in PARM file will be ignored!
Info: SCNB (VDW SCALING)     2
Info: USING ARITHMETIC MEAN TO COMBINE L-J SIGMA PARAMETERS
Info: SUMMARY OF PARAMETERS:
Info: 71 BONDS
Info: 145 ANGLES
Info: 76 DIHEDRAL
Info: 0 IMPROPER
Info: 0 CROSSTERM
Info: 0 VDW
Info: 190 VDW_PAIRS
Info: 0 NBTHOLE_PAIRS
Info: STRUCTURE SUMMARY:
Info: 49394 ATOMS
Info: 49448 BONDS
Info: 8698 ANGLES
Info: 18780 DIHEDRALS
Info: 0 IMPROPERS
Info: 0 CROSSTERMS
Info: 0 EXCLUSIONS
Info: 2336 CONSTRAINTS
Info: 44667 RIGID BONDS
Info: 103515 DEGREES OF FREEDOM
Info: 17225 HYDROGEN GROUPS
Info: 4 ATOMS IN LARGEST HYDROGEN GROUP
Info: 17225 MIGRATION GROUPS
Info: 4 ATOMS IN LARGEST MIGRATION GROUP
Info: TOTAL MASS = 301478 amu
Info: TOTAL CHARGE = 1.00115e-05 e
Info: MASS DENSITY = 0.935846 g/cm^3
Info: ATOM DENSITY = 0.0923345 atoms/A^3
Info: ADDED 70656 IMPLICIT EXCLUSIONS
Info: NONBONDED TABLE R-SQUARED SPACING: 0.0625
Info: NONBONDED TABLE SIZE: 769 POINTS
Info: REMOVING COM VELOCITY 0.015638 0.0157158 0.00456689
TCL: Running for 5000 steps
ETITLE: TS BOND ANGLE DIHED IMPRP ELECT VDW BOUNDARY MISC KINETIC TOTAL TEMP POTENTIAL TOTAL3 TEMPAVG PRESSURE GPRESSURE VOLUME PRESSAVG GPRESSAVG
ENERGY: 0 396.5250 1243.9444 2912.4509 0.0000 -212831.7643 29592.0136 0.0000 0.0000 10055.6092 -168631.2212 97.7677 -178686.8304 -168621.4547 97.7677 -2288.6513 -2386.5249 534946.2959 -2288.6513 -2386.5249
ENERGY: 1000 1270.3653 1990.0604 3107.8534 0.0000 -193392.2400 26209.7535 736.7393 0.0000 24258.9616 -135818.5065 235.8627 -160077.4680 -135785.7455 219.5060 -115.0447 -26.5182 521782.4689 -26.7040 -26.5028
ENERGY: 2000 1462.2128 2186.3017 3151.1889 0.0000 -183906.6708 23203.1537 770.9567 0.0000 27885.1974 -125247.6597 271.1195 -153132.8571 -125213.9790 264.7452 8.9135 37.6132 515146.9716 -22.3765 -22.6309
ENERGY: 3000 1504.0269 2218.3176 3131.3486 0.0000 -178647.6899 21536.6830 766.0627 0.0000 29541.3513 -119949.8998 287.2218 -149491.2511 -119911.0888 285.7998 -71.4024 -19.1216 510693.6608 -20.2637 -19.7952
ENERGY: 4000 1548.8151 2230.4503 3161.3016 0.0000 -176763.3630 20666.6903 848.1068 0.0000 30554.7382 -117753.2607 297.0747 -148307.9989 -117712.9675 293.6798 -50.0112 -11.3565 509133.7042 -9.9433 -10.1497
ENERGY: 5000 1518.3558 2265.0075 3148.8128 0.0000 -175517.0399 20287.1538 826.2373 0.0000 30769.0108 -116702.4619 299.1580 -147471.4727 -116647.4509 298.3353 -36.9786 -42.5424 507046.1221 -10.1394 -10.7772
TCL: Setting parameter constraintScaling to 5.0
TCL: Running for 5000 steps
ETITLE: TS BOND ANGLE DIHED IMPRP ELECT VDW BOUNDARY MISC KINETIC TOTAL TEMP POTENTIAL TOTAL3 TEMPAVG PRESSURE GPRESSURE VOLUME PRESSAVG GPRESSAVG
ENERGY: 5000 1518.3558 2265.0075 3148.8128 0.0000 -175517.0399 20287.1538 413.1186 0.0000 30766.9540 -117117.6374 299.1380 -147884.5913 -117071.7016 299.1380 -108.0964 -104.5812 507046.1221 -108.0964 -104.5812
ENERGY: 6000 1639.7723 2289.5727 3145.4803 0.0000 -175112.9339 19849.8018 677.4306 0.0000 30777.3393 -116733.5368 299.2390 -147510.8761 -116693.2569 299.6346 7.0131 8.4497 505592.9075 11.0752 10.8984
ENERGY: 7000 1599.4266 2287.8068 3162.8574 0.0000 -175873.4768 20505.8131 630.3171 0.0000 30656.8229 -117030.4330 298.0672 -147687.2559 -116995.1397 299.3422 -59.2099 -73.8738 501420.4154 -22.7869 -22.8859
ENERGY: 8000 1573.4931 2321.0738 3182.1660 0.0000 -175530.6816 20181.8148 667.0600 0.0000 30597.7776 -117007.2964 297.4932 -147605.0740 -116963.6189 299.3906 14.9505 37.4075 501964.2118 -2.7587 -2.6883
ENERGY: 9000 1557.3149 2277.0462 3143.4547 0.0000 -176246.1937 20495.9359 653.6598 0.0000 30957.9488 -117160.8334 300.9950 -148118.7822 -117127.4333 298.8006 75.0653 -3.2991 501080.5351 0.1883 -0.3004
ENERGY: 10000 1625.8183 2320.6919 3176.2233 0.0000 -175578.5521 19887.3085 660.3238 0.0000 30802.4357 -117105.7506 299.4830 -147908.1863 -117062.5490 298.2859 3.7850 -1.7034 500555.1021 -6.0000 -5.5931
TCL: Setting parameter constraintScaling to 2.5
TCL: Running for 5000 steps
ETITLE: TS BOND ANGLE DIHED IMPRP ELECT VDW BOUNDARY MISC KINETIC TOTAL TEMP POTENTIAL TOTAL3 TEMPAVG PRESSURE GPRESSURE VOLUME PRESSAVG GPRESSAVG
ENERGY: 10000 1625.8183 2320.6919 3176.2233 0.0000 -175578.5521 19887.3085 330.1619 0.0000 30800.3639 -117437.9843 299.4628 -148238.3482 -117395.9155 299.4628 -120.9858 -127.6456 500555.1021 -120.9858 -127.6456
ENERGY: 11000 1701.2027 2438.2377 3117.6735 0.0000 -175472.2065 20017.9812 515.4606 0.0000 30836.8240 -116844.8269 299.8173 -147681.6509 -116800.7916 299.7514 -1.3559 24.6381 500158.7693 3.9427 4.2619
ENERGY: 12000 1614.3187 2320.9206 3162.4724 0.0000 -175166.9108 19742.6543 550.8279 0.0000 31073.4866 -116702.2303 302.1183 -147775.7169 -116649.1405 300.5221 -143.6719 -65.9665 500112.0449 6.8102 6.9214
ENERGY: 13000 1619.3242 2303.3773 3204.6373 0.0000 -176186.8695 20400.2995 512.5127 0.0000 30947.5215 -117199.1971 300.8936 -148146.7186 -117148.1641 300.1551 -14.4152 -11.5293 498694.4577 -5.1062 -5.5641
ENERGY: 14000 1632.5274 2316.6757 3174.3173 0.0000 -175648.6022 19988.3056 508.6844 0.0000 30840.7969 -117187.2948 299.8560 -148028.0918 -117151.5918 300.0560 -161.3456 -114.5196 498576.7572 -14.0140 -13.5649
ENERGY: 15000 1594.2117 2328.3131 3125.8980 0.0000 -175482.0634 19889.3038 509.4201 0.0000 30843.0608 -117191.8559 299.8780 -148034.9167 -117146.1357 299.5457 -69.9631 -17.4728 499869.8020 7.0946 6.6979
TCL: Setting parameter constraintScaling to 1.25
TCL: Running for 5000 steps
ETITLE: TS BOND ANGLE DIHED IMPRP ELECT VDW BOUNDARY MISC KINETIC TOTAL TEMP POTENTIAL TOTAL3 TEMPAVG PRESSURE GPRESSURE VOLUME PRESSAVG GPRESSAVG
ENERGY: 15000 1594.2117 2328.3131 3125.8980 0.0000 -175482.0634 19889.3038 254.7100 0.0000 30840.9913 -117448.6354 299.8579 -148289.6268 -117405.4856 299.8579 -132.7949 -84.4805 499869.8020 -132.7949 -84.4805
ENERGY: 16000 1589.3752 2380.5216 3180.5004 0.0000 -176002.2955 20154.6415 393.1992 0.0000 30836.5332 -117467.5246 299.8145 -148304.0577 -117431.7471 299.2398 12.0473 26.9057 497743.5809 -4.7319 -4.5847
ENERGY: 17000 1584.2549 2372.4088 3181.1094 0.0000 -174997.8019 19816.6288 399.1189 0.0000 30916.4342 -116727.8468 300.5914 -147644.2810 -116683.5592 300.5826 4.3713 -47.1253 498359.4835 6.0568 5.8657
ENERGY: 18000 1673.6114 2336.3677 3176.3182 0.0000 -175314.0098 19687.7380 406.3242 0.0000 30941.2463 -117092.4039 300.8326 -148033.6502 -117055.9302 299.8966 -108.3794 5.8878 497901.3231 -4.7016 -4.7137
ENERGY: 19000 1608.2441 2363.9966 3178.4070 0.0000 -175883.8204 20185.8174 399.4947 0.0000 30864.7023 -117283.1584 300.0884 -148147.8607 -117248.9355 299.7202 50.8315 49.5098 496405.4564 -5.6928 -5.9679
ENERGY: 20000 1575.6454 2347.7105 3207.2760 0.0000 -175779.2845 20013.7328 417.8860 0.0000 30731.4911 -117485.5426 298.7932 -148217.0336 -117433.0658 299.1736 42.5672 14.9816 498325.5695 13.9849 14.0089
TCL: Setting parameter constraintScaling to 0.625
TCL: Running for 5000 steps
ETITLE: TS BOND ANGLE DIHED IMPRP ELECT VDW BOUNDARY MISC KINETIC TOTAL TEMP POTENTIAL TOTAL3 TEMPAVG PRESSURE GPRESSURE VOLUME PRESSAVG GPRESSAVG
ENERGY: 20000 1575.6454 2347.7105 3207.2760 0.0000 -175779.2845 20013.7328 208.9430 0.0000 30729.4590 -117696.5177 298.7735 -148425.9767 -117656.1087 298.7735 -14.5714 -38.5637 498325.5695 -14.5714 -38.5637
ENERGY: 21000 1577.3881 2324.4789 3195.8251 0.0000 -176059.5545 20142.4593 314.8976 0.0000 30855.2081 -117649.2974 299.9961 -148504.5055 -117597.3711 298.5189 -95.9202 -100.8363 499185.5714 6.6811 6.5002
ENERGY: 22000 1572.4700 2422.6027 3188.6687 0.0000 -176008.3721 20147.6229 334.7649 0.0000 31060.6754 -117281.5676 301.9938 -148342.2430 -117241.3421 298.7621 -211.5348 -67.7762 499218.8294 10.1792 10.1328
ENERGY: 23000 1570.3306 2401.2053 3199.1859 0.0000 -175941.5414 20194.5009 321.3718 0.0000 30877.9966 -117376.9503 300.2176 -148254.9468 -117327.3048 299.4398 33.8273 11.2671 499470.9934 -4.1324 -4.5979
ENERGY: 24000 1560.0116 2336.4182 3206.8511 0.0000 -176570.6764 20318.2915 296.0716 0.0000 30750.1380 -118102.8944 298.9745 -148853.0323 -118062.2629 298.7345 2.9587 -4.0879 498984.3718 4.1609 4.5715
ENERGY: 25000 1576.2632 2393.1844 3179.0952 0.0000 -176276.8708 20198.4246 311.0053 0.0000 30607.5491 -118011.3490 297.5882 -148618.8981 -117965.4145 297.4046 -18.5020 52.0791 498436.0991 2.6230 2.1583
TCL: Setting parameter constraintScaling to 0.3125
TCL: Running for 5000 steps
ETITLE: TS BOND ANGLE DIHED IMPRP ELECT VDW BOUNDARY MISC KINETIC TOTAL TEMP POTENTIAL TOTAL3 TEMPAVG PRESSURE GPRESSURE VOLUME PRESSAVG GPRESSAVG
ENERGY: 25000 1576.2632 2393.1844 3179.0952 0.0000 -176276.8708 20198.4246 155.5026 0.0000 30605.4709 -118168.9298 297.5680 -148774.4007 -118124.2501 297.5680 -54.8671 14.7763 498436.0991 -54.8671 14.7763
ENERGY: 26000 1602.7829 2426.9903 3223.6817 0.0000 -176017.7731 20188.8651 254.0236 0.0000 30867.0964 -117454.3332 300.1117 -148321.4295 -117408.6820 300.3976 17.7533 51.0507 497880.0774 -7.9820 -7.6718
ENERGY: 27000 1675.9679 2357.1243 3213.1683 0.0000 -176231.4152 20406.3976 245.7480 0.0000 30803.3951 -117529.6139 299.4923 -148333.0091 -117483.4816 300.1108 15.7742 -51.4114 498979.6663 -1.4241 -1.5203
ENERGY: 28000 1674.8159 2369.2793 3229.3552 0.0000 -175825.4780 20143.7669 254.4961 0.0000 30838.9873 -117314.7773 299.8384 -148153.7646 -117271.2430 299.9398 -32.8050 34.5330 498152.8189 -4.7119 -5.2285
ENERGY: 29000 1706.1217 2369.5545 3221.8155 0.0000 -175434.9538 19905.0475 248.7374 0.0000 30891.6786 -117091.9986 300.3507 -147983.6772 -117036.5674 300.5199 -51.5073 -17.0574 498572.4555 9.3677 8.9881
ENERGY: 30000 1635.2840 2371.6774 3220.1602 0.0000 -175874.0685 20134.4040 248.0135 0.0000 30819.2214 -117445.3078 299.6462 -148264.5293 -117407.6251 298.9277 -63.8941 -17.9234 498991.5285 1.1762 0.7310
TCL: Setting parameter constraintScaling to 0.15625
TCL: Running for 5000 steps
ETITLE: TS BOND ANGLE DIHED IMPRP ELECT VDW BOUNDARY MISC KINETIC TOTAL TEMP POTENTIAL TOTAL3 TEMPAVG PRESSURE GPRESSURE VOLUME PRESSAVG GPRESSAVG
ENERGY: 30000 1635.2840 2371.6774 3220.1602 0.0000 -175874.0684 20134.4040 124.0067 0.0000 30817.1549 -117571.3810 299.6261 -148388.5360 -117527.9971 299.6261 -100.1788 -46.8593 498991.5285 -100.1788 -46.8593
ENERGY: 31000 1626.5931 2427.9567 3201.7682 0.0000 -176530.9558 20437.5240 192.6080 0.0000 30678.0547 -117966.4511 298.2737 -148644.5058 -117908.2855 298.2893 -111.2623 -104.7705 498129.7893 3.8342 4.0337
ENERGY: 32000 1646.6352 2399.6077 3202.3446 0.0000 -175693.1445 19860.3777 186.5571 0.0000 30654.0521 -117743.5701 298.0403 -148397.6222 -117701.6461 298.5117 -9.6456 -0.5189 497966.5651 1.9193 2.1650
ENERGY: 33000 1618.1293 2361.8329 3202.3778 0.0000 -176291.6431 20258.0916 204.1010 0.0000 30861.2299 -117785.8806 300.0546 -148647.1105 -117742.8289 298.2429 -83.1293 -35.9676 496979.9717 -7.3550 -6.6192
ENERGY: 34000 1591.9073 2434.5112 3206.7467 0.0000 -176274.9435 20112.8448 198.0640 0.0000 30811.3517 -117919.5177 299.5697 -148730.8694 -117877.5288 299.5828 -49.1756 -18.2491 496811.3009 -1.7258 -0.9282
ENERGY: 35000 1603.3026 2405.3098 3214.9646 0.0000 -175890.2190 20186.9181 216.5594 0.0000 30679.8118 -117583.3527 298.2908 -148263.1645 -117548.8151 299.9025 -15.5086 69.8065 497903.3247 8.4217 8.7019
TCL: Setting parameter constraintScaling to 0.078125
TCL: Running for 5000 steps
ETITLE: TS BOND ANGLE DIHED IMPRP ELECT VDW BOUNDARY MISC KINETIC TOTAL TEMP POTENTIAL TOTAL3 TEMPAVG PRESSURE GPRESSURE VOLUME PRESSAVG GPRESSAVG
ENERGY: 35000 1603.3026 2405.3098 3214.9646 0.0000 -175890.2190 20186.9181 108.2797 0.0000 30677.7782 -117693.6661 298.2710 -148371.4442 -117650.6909 298.2710 -22.9043 59.7259 497903.3247 -22.9043 59.7259
ENERGY: 36000 1623.1761 2424.1710 3212.0298 0.0000 -176155.7696 20103.5765 145.7870 0.0000 30755.1068 -117891.9224 299.0228 -148647.0292 -117853.8670 298.8362 -7.7539 -1.2109 496008.6811 -15.1221 -15.0708
ENERGY: 37000 1575.9672 2455.4851 3215.1940 0.0000 -175785.2342 20050.5416 148.2071 0.0000 30871.0324 -117468.8068 300.1499 -148339.8392 -117413.5176 300.3155 149.1696 142.5794 497043.6647 7.5545 7.3415
ENERGY: 38000 1635.1782 2374.4178 3214.5032 0.0000 -175795.3496 20164.8298 151.6656 0.0000 30954.9848 -117299.7701 300.9662 -148254.7549 -117247.2938 300.7432 -155.3219 -9.6072 497274.3595 -3.9943 -4.2519
ENERGY: 39000 1650.5983 2311.9646 3227.1618 0.0000 -175811.4821 20135.6138 160.1283 0.0000 30681.2565 -117644.7589 298.3048 -148326.0154 -117598.8925 300.1080 -165.8170 -42.7430 497366.5090 -9.8898 -10.0526
ENERGY: 40000 1633.4385 2319.9526 3211.1191 0.0000 -175633.4330 20048.0895 157.9285 0.0000 30693.5785 -117569.3263 298.4246 -148262.9047 -117526.1656 299.6580 59.9144 79.3527 498637.9985 10.3149 10.1886
TCL: Setting parameter constraintScaling to 0.0390625
TCL: Running for 5000 steps
ETITLE: TS BOND ANGLE DIHED IMPRP ELECT VDW BOUNDARY MISC KINETIC TOTAL TEMP POTENTIAL TOTAL3 TEMPAVG PRESSURE GPRESSURE VOLUME PRESSAVG GPRESSAVG
ENERGY: 40000 1633.4385 2319.9526 3211.1191 0.0000 -175633.4330 20048.0895 78.9643 0.0000 30691.5525 -117650.3165 298.4049 -148341.8690 -117611.8561 298.4049 24.0809 59.1653 498637.9985 24.0809 59.1653
ENERGY: 41000 1658.7843 2377.0430 3229.0338 0.0000 -175274.6568 19829.0637 107.8388 0.0000 30974.2365 -117098.6568 301.1534 -148072.8932 -117059.6615 300.7671 -12.5716 39.3889 498815.6811 5.0958 4.9438
ENERGY: 42000 1619.7045 2419.9983 3197.7605 0.0000 -176059.4712 20095.9123 115.6256 0.0000 30890.1570 -117720.3129 300.3359 -148610.4700 -117658.1031 298.9655 -123.5669 -12.8264 497602.4995 -3.1301 -3.1107
ENERGY: 43000 1615.7536 2446.8179 3212.7660 0.0000 -175813.1018 20005.8204 127.3024 0.0000 30838.7728 -117565.8686 299.8363 -148404.6414 -117525.6338 299.0288 -80.6738 10.8107 497634.4475 3.4668 3.9866
ENERGY: 44000 1690.3557 2368.4070 3197.9639 0.0000 -176021.7122 20146.2928 126.7689 0.0000 30637.9878 -117853.9359 297.8841 -148491.9238 -117810.3228 299.1639 38.0840 -12.8535 497021.5555 -4.6317 -4.1138
ENERGY: 45000 1648.1810 2356.1862 3216.1127 0.0000 -176161.5413 20094.1416 123.7548 0.0000 30743.2804 -117979.8846 298.9078 -148723.1650 -117928.1786 298.2135 -53.2121 13.6845 495769.4765 -2.3613 -2.6412
TCL: Setting parameter constraintScaling to 0.01953125
TCL: Running for 5000 steps
ETITLE: TS BOND ANGLE DIHED IMPRP ELECT VDW BOUNDARY MISC KINETIC TOTAL TEMP POTENTIAL TOTAL3 TEMPAVG PRESSURE GPRESSURE VOLUME PRESSAVG GPRESSAVG
ENERGY: 45000 1648.1810 2356.1862 3216.1127 0.0000 -176161.5413 20094.1416 61.8774 0.0000 30741.2195 -118043.8229 298.8878 -148785.0424 -118002.2479 298.8878 -64.4539 3.7509 495769.4765 -64.4539 3.7509
ENERGY: 46000 1621.2878 2435.5226 3198.3128 0.0000 -175790.6200 20041.5137 77.1533 0.0000 30675.2326 -117741.5973 298.2462 -148416.8299 -117701.1690 299.2874 59.7155 74.0867 496664.4894 6.7865 6.5022
ENERGY: 47000 1652.1194 2335.7177 3163.8823 0.0000 -175867.9586 20037.0390 78.9283 0.0000 30902.4142 -117697.8577 300.4550 -148600.2719 -117642.3719 298.9624 -49.6450 -19.6808 496265.9672 12.8242 12.6125
ENERGY: 48000 1594.4024 2438.0162 3213.2543 0.0000 -175926.9580 20158.2267 82.1902 0.0000 30869.6426 -117571.2256 300.1364 -148440.8682 -117523.4053 300.6221 -32.2168 -69.8947 497162.9609 -2.8491 -3.1033
ENERGY: 49000 1614.7963 2438.9012 3158.1213 0.0000 -175965.4947 20249.7990 85.6436 0.0000 30847.3987 -117570.8346 299.9202 -148418.2333 -117523.9700 299.9689 44.3021 19.7443 497605.1622 -1.2283 -1.2400
ENERGY: 50000 1587.0475 2379.9378 3207.5332 0.0000 -176480.8870 20242.5779 80.7351 0.0000 31096.7067 -117886.3489 302.3441 -148983.0556 -117834.3948 298.7291 30.6043 4.6877 497474.7378 5.6793 6.1251
TCL: Setting parameter constraintScaling to 0
TCL: Running for 5000 steps
ETITLE: TS BOND ANGLE DIHED IMPRP ELECT VDW BOUNDARY MISC KINETIC TOTAL TEMP POTENTIAL TOTAL3 TEMPAVG PRESSURE GPRESSURE VOLUME PRESSAVG GPRESSAVG
ENERGY: 50000 1587.0475 2379.9378 3207.5332 0.0000 -176480.8870 20242.5779 0.0000 0.0000 31094.6526 -117969.1380 302.3241 -149063.7906 -117926.3239 302.3241 37.8289 1.3787 497474.7378 37.8289 1.3787
ENERGY: 51000 1647.9907 2450.8704 3188.2693 0.0000 -176053.7592 20138.8289 0.0000 0.0000 30922.3467 -117705.4531 300.6488 -148627.7998 -117658.6525 300.1787 -67.9441 -37.6859 496654.3239 -9.7220 -9.6681
ENERGY: 52000 1647.1405 2409.8785 3266.9188 0.0000 -176021.8825 19991.0254 0.0000 0.0000 30879.1279 -117827.7914 300.2286 -148706.9193 -117786.2058 300.5379 -81.4163 -59.1311 496440.8389 4.9004 4.6212
ENERGY: 53000 1637.2048 2443.2576 3200.3348 0.0000 -175697.1973 20015.1302 0.0000 0.0000 30600.9551 -117800.3148 297.5241 -148401.2700 -117760.8653 299.7588 -12.5780 10.0880 495697.6908 -4.5156 -4.3279
ENERGY: 54000 1678.5826 2434.0665 3210.4844 0.0000 -175833.1163 19928.2190 0.0000 0.0000 30976.2566 -117605.5072 301.1730 -148581.7638 -117564.6263 300.3121 -144.0607 -51.2329 498008.3850 9.9459 9.3579
ENERGY: 55000 1643.2472 2440.1262 3224.3826 0.0000 -176363.5525 20154.0792 0.0000 0.0000 30633.6626 -118268.0547 297.8421 -148901.7173 -118220.5823 297.9913 35.4015 42.7598 495762.1964 -9.5410 -9.8948
