Info: SIMULATION PARAMETERS:
Info: TIMESTEP               1
Info: NUMBER OF STEPS        0
Info: STEPS PER CYCLE        10
Info: PERIODIC CELL BASIS 1  72.449 0 0
Info: PERIODIC CELL BASIS 2  0 93.247 0
Info: PERIODIC CELL BASIS 3  0 0 79.185
Info: PERIODIC CELL CENTER   -0.248 -0.156 -0.047
Info: WRAPPING WATERS AROUND PERIODIC BOUNDARIES ON OUTPUT.
Info: WRAPPING ALL CLUSTERS AROUND PERIODIC BOUNDARIES ON OUTPUT.
Info: FIRST LDB TIMESTEP     50
Info: LAST LDB TIMESTEP     -1
Info: HOM BACKGROUND SCALING 1
Info: PME BACKGROUND SCALING 1
Info: MIN ATOMS PER PATCH    40
Info: VELOCITY FILE          ../replicas/rep10/equilibration/eq1.vel
Info: CENTER OF MASS MOVING INITIALLY? NO
Info: DIELECTRIC             1
Info: EXCLUDE                SCALED ONE-FOUR
Info: 1-4 ELECTROSTATICS SCALED BY 0.833333
Info: MODIFIED 1-4 VDW PARAMETERS WILL BE USED
Info: DCD FILENAME           ../replicas/rep10/equilibration/eq2.dcd
Info: DCD FREQUENCY          5000
Info: DCD FIRST STEP         5000
Info: DCD FILE WILL CONTAIN UNIT CELL DATA
Info: XST FILENAME           ../replicas/rep10/equilibration/eq2.xst
Info: XST FREQUENCY          5000
Info: NO VELOCITY DCD OUTPUT
Info: NO FORCE DCD OUTPUT
Info: OUTPUT FILENAME        ../replicas/rep10/equilibration/eq2
Info: RESTART FILENAME       ../replicas/rep10/equilibration/eq2.restart
Info: RESTART FREQUENCY      5000
Info: BINARY RESTART FILES WILL BE USED
Info: SWITCHING ACTIVE
Info: SWITCHING ON           10
Info: SWITCHING OFF          12
Info: PAIRLIST DISTANCE      13.5
Info: PAIRLIST SHRINK RATE   0.01
Info: PAIRLIST GROW RATE     0.01
Info: PAIRLIST TRIGGER       0.3
Info: PAIRLISTS PER CYCLE    2
Info: PAIRLISTS ENABLED
Info: MARGIN                 0.48
Info: HYDROGEN GROUP CUTOFF  2.5
Info: PATCH DIMENSION        16.48
Info: ENERGY OUTPUT STEPS    500
Info: CROSSTERM ENERGY INCLUDED IN DIHEDRAL
Info: TIMING OUTPUT STEPS    5000
Info: PRESSURE OUTPUT STEPS  500
Info: HARMONIC CONSTRAINTS ACTIVE
Info: HARMONIC CONS EXP      2
Info: HARMONIC CONS SCALING  10
Info: LANGEVIN DYNAMICS ACTIVE
Info: LANGEVIN TEMPERATURE   300
Info: LANGEVIN USING BBK INTEGRATOR
Info: LANGEVIN DAMPING COEFFICIENT IS 5 INVERSE PS
Info: LANGEVIN DYNAMICS NOT APPLIED TO HYDROGENS
Info: BERENDSEN PRESSURE COUPLING ACTIVE
Info:     TARGET PRESSURE IS 1 BAR
Info:     COMPRESSIBILITY ESTIMATE IS 4.57e-05 BAR^(-1)
Info:     RELAXATION TIME IS 100 FS
Info:     APPLIED EVERY 2 STEPS
Info:     PRESSURE CONTROL IS GROUP-BASED
Info:       CELL FLUCTUATION IS ISOTROPIC
Info: PARTICLE MESH EWALD (PME) ACTIVE
Info: PME TOLERANCE               1e-06
Info: PME EWALD COEFFICIENT       0.257952
Info: PME INTERPOLATION ORDER     4
Info: PME GRID DIMENSIONS         80 96 80
Info: PME MAXIMUM GRID SPACING    1
Info: FULL ELECTROSTATIC EVALUATION FREQUENCY      2
Info: USING VERLET I (r-RESPA) MTS SCHEME.
Info: C1 SPLITTING OF LONG RANGE ELECTROSTATICS
Info: PLACING ATOMS IN PATCHES BY HYDROGEN GROUPS
Info: RIGID BONDS TO HYDROGEN : WATER
Info:         ERROR TOLERANCE : 1e-05
Info:          MAX ITERATIONS : 100
Info: RIGID WATER USING SETTLE ALGORITHM
Info: RANDOM NUMBER SEED     1503274090
Info: USE HYDROGEN BONDS?    NO
Info: Using AMBER format force field!
Info: AMBER PARM FILE        ../build/complex.top
Info: COORDINATE PDB         ../replicas/rep10/equilibration/eq1.coor
Info: Exclusions in PARM file will be ignored!
Info: SCNB (VDW SCALING)     2
Info: USING ARITHMETIC MEAN TO COMBINE L-J SIGMA PARAMETERS
Info: SUMMARY OF PARAMETERS:
Info: 71 BONDS
Info: 145 ANGLES
Info: 76 DIHEDRAL
Info: 0 IMPROPER
Info: 0 CROSSTERM
Info: 0 VDW
Info: 190 VDW_PAIRS
Info: 0 NBTHOLE_PAIRS
Info: STRUCTURE SUMMARY:
Info: 49394 ATOMS
Info: 49448 BONDS
Info: 8698 ANGLES
Info: 18780 DIHEDRALS
Info: 0 IMPROPERS
Info: 0 CROSSTERMS
Info: 0 EXCLUSIONS
Info: 2336 CONSTRAINTS
Info: 44667 RIGID BONDS
Info: 103515 DEGREES OF FREEDOM
Info: 17225 HYDROGEN GROUPS
Info: 4 ATOMS IN LARGEST HYDROGEN GROUP
Info: 17225 MIGRATION GROUPS
Info: 4 ATOMS IN LARGEST MIGRATION GROUP
Info: TOTAL MASS = 301478 amu
Info: TOTAL CHARGE = 1.00115e-05 e
Info: MASS DENSITY = 0.935846 g/cm^3
Info: ATOM DENSITY = 0.0923345 atoms/A^3
Info: ADDED 70656 IMPLICIT EXCLUSIONS
Info: NONBONDED TABLE R-SQUARED SPACING: 0.0625
Info: NONBONDED TABLE SIZE: 769 POINTS
Info: REMOVING COM VELOCITY 0.0345922 -0.0128157 -0.0258695
TCL: Running for 5000 steps
ETITLE: TS BOND ANGLE DIHED IMPRP ELECT VDW BOUNDARY MISC KINETIC TOTAL TEMP POTENTIAL TOTAL3 TEMPAVG PRESSURE GPRESSURE VOLUME PRESSAVG GPRESSAVG
ENERGY: 0 386.4337 1196.8002 2914.4376 0.0000 -213053.3981 29859.2982 0.0000 0.0000 10027.5317 -168668.8966 97.4947 -178696.4283 -168659.3245 97.4947 -2254.3338 -2360.3231 534946.2959 -2254.3338 -2360.3231
ENERGY: 1000 1269.0259 2020.1404 3134.7713 0.0000 -193767.1821 26448.9756 770.1460 0.0000 23941.0191 -136183.1037 232.7715 -160124.1229 -136159.1650 218.5921 -47.5705 -21.1963 523712.5025 -11.8007 -11.6340
ENERGY: 2000 1454.6755 2194.9968 3132.8235 0.0000 -184457.7541 23466.2064 816.0936 0.0000 27905.7997 -125487.1587 271.3199 -153392.9583 -125450.1365 264.1994 -60.1365 -20.5853 514853.2795 -28.4252 -28.4671
ENERGY: 3000 1510.7418 2250.6710 3124.2874 0.0000 -179480.0731 21903.3612 787.2406 0.0000 29418.4558 -120485.3153 286.0270 -149903.7711 -120447.7231 283.9811 -67.6530 6.5824 509887.3006 -18.8054 -18.9144
ENERGY: 4000 1556.2699 2243.9329 3170.0526 0.0000 -177031.3309 20775.9483 810.0783 0.0000 30192.1575 -118282.8914 293.5494 -148475.0488 -118238.9407 292.9067 -66.6109 -24.5435 507235.8680 -9.0931 -9.5238
ENERGY: 5000 1515.8357 2271.1813 3142.4249 0.0000 -175515.7083 20221.0850 805.7469 0.0000 30609.3446 -116950.0900 297.6056 -147559.4346 -116907.4897 296.4995 -28.6786 27.5011 505749.6276 1.3814 1.0832
TCL: Setting parameter constraintScaling to 5.0
TCL: Running for 5000 steps
ETITLE: TS BOND ANGLE DIHED IMPRP ELECT VDW BOUNDARY MISC KINETIC TOTAL TEMP POTENTIAL TOTAL3 TEMPAVG PRESSURE GPRESSURE VOLUME PRESSAVG GPRESSAVG
ENERGY: 5000 1515.8357 2271.1813 3142.4249 0.0000 -175515.7083 20221.0850 402.8734 0.0000 30607.2954 -117355.0127 297.5857 -147962.3081 -117308.9827 297.5857 -72.2805 -14.9219 505749.6276 -72.2805 -14.9219
ENERGY: 6000 1608.8229 2343.5054 3197.4851 0.0000 -175786.1490 20460.3919 643.7471 0.0000 30664.5189 -116867.6778 298.1421 -147532.1967 -116827.1699 298.4648 -25.7404 32.3189 504114.7664 -6.4924 -7.0792
ENERGY: 7000 1592.7638 2304.6547 3171.1021 0.0000 -175425.4890 20307.1257 662.0579 0.0000 30748.6009 -116639.1839 298.9596 -147387.7848 -116582.3882 299.1937 18.2637 6.3693 503851.3193 2.1328 2.0993
ENERGY: 8000 1585.2687 2284.3855 3190.8827 0.0000 -175164.5000 20087.5860 633.3995 0.0000 30904.7945 -116478.1831 300.4782 -147382.9775 -116430.0363 300.9599 -42.4960 50.7656 503391.4007 -3.8625 -3.8895
ENERGY: 9000 1632.8505 2276.3465 3167.9273 0.0000 -175563.7487 20074.8015 629.3188 0.0000 30857.4668 -116925.0373 300.0180 -147782.5041 -116892.2001 299.6050 0.4879 38.7149 502560.2258 -0.1391 -0.1211
ENERGY: 10000 1653.6350 2304.5633 3165.1833 0.0000 -175765.0383 20381.7754 665.5964 0.0000 30776.9510 -116817.3340 299.2352 -147594.2850 -116782.9983 300.1834 -72.1614 12.9924 500607.5211 -15.5376 -16.0411
TCL: Setting parameter constraintScaling to 2.5
TCL: Running for 5000 steps
ETITLE: TS BOND ANGLE DIHED IMPRP ELECT VDW BOUNDARY MISC KINETIC TOTAL TEMP POTENTIAL TOTAL3 TEMPAVG PRESSURE GPRESSURE VOLUME PRESSAVG GPRESSAVG
ENERGY: 10000 1653.6350 2304.5633 3165.1833 0.0000 -175765.0383 20381.7754 332.7982 0.0000 30774.9261 -117152.1571 299.2155 -147927.0832 -117106.9855 299.2155 -54.6000 25.3873 500607.5211 -54.6000 25.3873
ENERGY: 11000 1634.2477 2437.0616 3180.7836 0.0000 -175435.5429 20041.0264 527.4089 0.0000 30975.3041 -116639.7106 301.1637 -147615.0147 -116597.6828 300.9026 -95.3356 -23.6685 500481.2023 0.1821 -0.2827
ENERGY: 12000 1602.2764 2312.8362 3184.4860 0.0000 -175683.2369 20308.7061 528.1881 0.0000 30871.7763 -116874.9678 300.1572 -147746.7441 -116817.0774 299.8930 29.0881 41.1466 498393.8666 -11.3112 -11.6184
ENERGY: 13000 1627.1879 2353.9907 3161.8723 0.0000 -175691.8924 20093.3026 511.3003 0.0000 30993.7544 -116950.4842 301.3431 -147944.2386 -116916.8198 300.7920 -59.1288 14.9512 500530.0206 7.0337 7.0681
ENERGY: 14000 1628.4601 2341.0373 3194.3482 0.0000 -175750.6537 20069.6729 491.3475 0.0000 30696.9488 -117328.8389 298.4574 -148025.7877 -117280.6876 299.4470 -54.7141 37.8615 499934.5920 2.0336 2.7561
ENERGY: 15000 1642.6101 2308.2468 3200.9378 0.0000 -175823.3811 20007.5141 524.3263 0.0000 30810.9599 -117328.7860 299.5659 -148139.7460 -117274.5059 299.0580 -143.0300 -23.2248 497689.0751 -20.1838 -20.1627
TCL: Setting parameter constraintScaling to 1.25
TCL: Running for 5000 steps
ETITLE: TS BOND ANGLE DIHED IMPRP ELECT VDW BOUNDARY MISC KINETIC TOTAL TEMP POTENTIAL TOTAL3 TEMPAVG PRESSURE GPRESSURE VOLUME PRESSAVG GPRESSAVG
ENERGY: 15000 1642.6101 2308.2468 3200.9378 0.0000 -175823.3811 20007.5141 262.1632 0.0000 30808.9271 -117592.9821 299.5461 -148401.9091 -117552.3409 299.5461 -173.6336 -56.5996 497689.0751 -173.6336 -56.5996
ENERGY: 16000 1646.0321 2366.3180 3186.9086 0.0000 -175681.5742 20129.5953 398.1546 0.0000 30860.5308 -117094.0347 300.0478 -147954.5655 -117040.1819 298.7415 55.0049 20.6194 500059.0415 7.5844 7.1138
ENERGY: 17000 1612.1340 2274.0354 3172.7603 0.0000 -175439.9239 19962.8631 411.4944 0.0000 30754.9370 -117251.6997 299.0212 -148006.6367 -117202.1849 299.0499 -126.1861 -23.6153 499454.5455 5.0027 5.4751
ENERGY: 18000 1646.0680 2310.9992 3202.3835 0.0000 -175568.2974 20082.6121 398.2748 0.0000 30477.3025 -117450.6571 296.3218 -147927.9596 -117397.4931 298.7090 45.9835 35.2587 498403.5353 1.4936 0.8300
ENERGY: 19000 1592.1548 2342.8874 3221.8620 0.0000 -175258.1155 19723.4184 412.8490 0.0000 30777.3747 -117187.5692 299.2393 -147964.9438 -117136.8307 299.4429 -42.0182 -61.1923 498167.3612 -1.6198 -1.7985
ENERGY: 20000 1562.4029 2331.8566 3207.7326 0.0000 -175650.9103 20168.0159 408.9686 0.0000 30918.0661 -117053.8676 300.6072 -147971.9337 -117000.8539 299.7615 -37.4927 15.5330 497632.4667 2.8451 2.5944
TCL: Setting parameter constraintScaling to 0.625
TCL: Running for 5000 steps
ETITLE: TS BOND ANGLE DIHED IMPRP ELECT VDW BOUNDARY MISC KINETIC TOTAL TEMP POTENTIAL TOTAL3 TEMPAVG PRESSURE GPRESSURE VOLUME PRESSAVG GPRESSAVG
ENERGY: 20000 1562.4029 2331.8566 3207.7326 0.0000 -175650.9103 20168.0159 204.4843 0.0000 30916.0463 -117260.3716 300.5876 -148176.4180 -117217.4952 300.5876 -35.9909 17.7403 497632.4667 -35.9909 17.7403
ENERGY: 21000 1593.3715 2290.2840 3209.6204 0.0000 -175757.9488 20123.2173 324.5458 0.0000 30980.0018 -117236.9080 301.2094 -148216.9098 -117179.8006 299.6750 37.5540 22.6191 498356.1967 -5.9599 -5.7875
ENERGY: 22000 1638.2000 2396.8573 3183.8289 0.0000 -176255.2055 20319.5889 321.4164 0.0000 30894.3844 -117500.9295 300.3770 -148395.3140 -117457.8086 299.9404 -11.9320 -3.5016 497482.1956 -12.0610 -12.2875
ENERGY: 23000 1628.1607 2403.9119 3192.3088 0.0000 -175655.6149 19675.2484 313.6577 0.0000 30938.9549 -117503.3726 300.8103 -148442.3276 -117445.2120 299.6350 -64.2218 -26.3184 495508.9226 -17.3539 -16.5268
ENERGY: 24000 1613.7037 2342.7966 3217.8998 0.0000 -175544.8347 19893.5924 317.3837 0.0000 30980.8708 -117178.5877 301.2179 -148159.4585 -117131.3198 300.8119 19.7459 21.9343 496155.4422 0.7503 0.6930
ENERGY: 25000 1615.1104 2407.7714 3223.1511 0.0000 -175608.1186 19917.0645 304.7343 0.0000 30771.1897 -117369.0972 299.1792 -148140.2869 -117311.6424 300.2953 -45.5572 -3.0775 496032.6341 -14.8925 -14.9630
TCL: Setting parameter constraintScaling to 0.3125
TCL: Running for 5000 steps
ETITLE: TS BOND ANGLE DIHED IMPRP ELECT VDW BOUNDARY MISC KINETIC TOTAL TEMP POTENTIAL TOTAL3 TEMPAVG PRESSURE GPRESSURE VOLUME PRESSAVG GPRESSAVG
ENERGY: 25000 1615.1104 2407.7714 3223.1511 0.0000 -175608.1186 19917.0645 152.3672 0.0000 30769.1540 -117523.5000 299.1594 -148292.6540 -117480.9136 299.1594 -68.1619 -17.8668 496032.6341 -68.1619 -17.8668
ENERGY: 26000 1582.7561 2399.2291 3205.2862 0.0000 -175897.9626 20132.1233 241.9707 0.0000 30805.7312 -117530.8659 299.5150 -148336.5971 -117491.0112 299.6741 -79.1840 25.6158 496351.9596 8.5808 8.7538
ENERGY: 27000 1564.8424 2388.8475 3252.6462 0.0000 -175751.2526 20057.7669 241.3615 0.0000 30693.2979 -117552.4901 298.4219 -148245.7880 -117507.6249 298.6662 44.5170 5.7662 498557.7860 9.7837 9.5078
ENERGY: 28000 1649.2071 2355.0175 3231.9842 0.0000 -175554.7745 19961.5614 242.8937 0.0000 30767.7007 -117346.4101 299.1453 -148114.1108 -117310.7455 299.0178 9.4845 -8.9877 500020.8931 8.1370 7.7996
ENERGY: 29000 1635.5153 2387.2602 3218.2123 0.0000 -175400.2003 19932.0754 246.7050 0.0000 30782.7768 -117197.6554 299.2918 -147980.4322 -117153.6037 300.1238 59.3241 25.4619 499597.0382 1.2954 1.3472
ENERGY: 30000 1648.5434 2372.7894 3199.7947 0.0000 -176034.0373 20111.0251 269.3674 0.0000 30574.1278 -117858.3896 297.2632 -148432.5173 -117811.0442 298.1506 -68.9364 0.9759 497400.4882 -15.0762 -15.0339
TCL: Setting parameter constraintScaling to 0.15625
TCL: Running for 5000 steps
ETITLE: TS BOND ANGLE DIHED IMPRP ELECT VDW BOUNDARY MISC KINETIC TOTAL TEMP POTENTIAL TOTAL3 TEMPAVG PRESSURE GPRESSURE VOLUME PRESSAVG GPRESSAVG
ENERGY: 30000 1648.5434 2372.7894 3199.7947 0.0000 -176034.0373 20111.0251 134.6837 0.0000 30572.0894 -117995.1117 297.2434 -148567.2010 -117954.8199 297.2434 -120.1867 -56.7972 497400.4882 -120.1867 -56.7972
ENERGY: 31000 1611.1518 2341.1259 3220.7827 0.0000 -175733.6371 19881.3260 186.7838 0.0000 30746.0124 -117746.4545 298.9344 -148492.4670 -117702.6144 298.2392 -130.8647 -31.2351 497700.5773 -3.7225 -3.5721
ENERGY: 32000 1625.6865 2312.5839 3230.7775 0.0000 -176095.2183 20239.6605 199.0904 0.0000 30853.2742 -117634.1452 299.9773 -148487.4194 -117589.5529 298.4772 -123.6364 6.8320 497924.3949 -0.1873 -0.6271
ENERGY: 33000 1655.3508 2434.0061 3186.5792 0.0000 -176339.6932 20339.6777 224.5605 0.0000 31011.6513 -117487.8677 301.5171 -148499.5190 -117446.4541 298.7732 -52.6503 25.6564 498360.7230 6.8471 6.6986
ENERGY: 34000 1605.1008 2446.9018 3207.1059 0.0000 -175870.9194 20050.9352 205.2022 0.0000 30909.9284 -117445.7451 300.5281 -148355.6735 -117394.4063 299.4945 -71.4356 -135.3979 498096.2450 -10.9693 -11.2911
ENERGY: 35000 1647.4631 2483.7110 3226.4774 0.0000 -175990.1794 20066.5550 205.8230 0.0000 30833.7474 -117526.4026 299.7874 -148360.1500 -117476.1558 299.5245 -48.0151 1.2763 497909.7986 1.5134 1.6580
TCL: Setting parameter constraintScaling to 0.078125
TCL: Running for 5000 steps
ETITLE: TS BOND ANGLE DIHED IMPRP ELECT VDW BOUNDARY MISC KINETIC TOTAL TEMP POTENTIAL TOTAL3 TEMPAVG PRESSURE GPRESSURE VOLUME PRESSAVG GPRESSAVG
ENERGY: 35000 1647.4631 2483.7110 3226.4774 0.0000 -175990.1794 20066.5550 102.9115 0.0000 30831.6788 -117631.3827 299.7673 -148463.0615 -117589.3404 299.7673 -57.1298 -14.8871 497909.7986 -57.1298 -14.8871
ENERGY: 36000 1641.8139 2413.7190 3184.7539 0.0000 -175869.6640 20006.6191 159.0554 0.0000 30776.6383 -117687.0645 299.2322 -148463.7028 -117637.0817 299.2701 -75.4770 -73.0893 496131.5666 5.4231 5.1220
ENERGY: 37000 1646.0148 2426.6134 3206.9528 0.0000 -176081.8826 20142.5215 174.3580 0.0000 30851.8230 -117633.5992 299.9632 -148485.4222 -117584.7474 299.8735 48.2715 111.3275 496613.2951 -9.6784 -9.3334
ENERGY: 38000 1638.2679 2356.0911 3255.8503 0.0000 -175823.7007 20036.0140 180.3071 0.0000 30924.1533 -117433.0172 300.6664 -148357.1705 -117391.6866 300.1297 0.8671 -1.5089 497854.3775 5.3217 4.8984
ENERGY: 39000 1691.8823 2358.7796 3218.3288 0.0000 -175728.0866 20066.9212 165.2733 0.0000 30868.5774 -117358.3240 300.1261 -148226.9014 -117316.7679 300.5564 -1.0286 7.6649 499229.0282 11.4989 11.1485
ENERGY: 40000 1640.7790 2409.3116 3229.7199 0.0000 -175956.7230 20177.3901 182.2678 0.0000 30780.5506 -117536.7040 299.2702 -148317.2546 -117496.7000 299.0515 -5.1286 -7.5329 497621.7514 -10.1866 -10.1583
TCL: Setting parameter constraintScaling to 0.0390625
TCL: Running for 5000 steps
ETITLE: TS BOND ANGLE DIHED IMPRP ELECT VDW BOUNDARY MISC KINETIC TOTAL TEMP POTENTIAL TOTAL3 TEMPAVG PRESSURE GPRESSURE VOLUME PRESSAVG GPRESSAVG
ENERGY: 40000 1640.7790 2409.3116 3229.7199 0.0000 -175956.7230 20177.3901 91.1339 0.0000 30778.5078 -117629.8807 299.2503 -148408.3885 -117587.4060 299.2503 -44.4204 -44.6546 497621.7514 -44.4204 -44.6546
ENERGY: 41000 1647.0671 2329.0059 3236.4366 0.0000 -175780.8567 19952.5817 118.2451 0.0000 30965.7105 -117531.8097 301.0705 -148497.5203 -117490.2111 299.7985 5.7524 0.7422 496084.0064 -25.2048 -25.3193
ENERGY: 42000 1608.1328 2449.1306 3240.4797 0.0000 -175624.6405 19799.3313 119.2024 0.0000 30911.4653 -117496.8985 300.5431 -148408.3638 -117449.6456 300.9279 -231.8170 -83.4574 496667.6872 7.0718 7.5401
ENERGY: 43000 1635.6820 2463.0881 3206.6414 0.0000 -175789.7211 19976.5673 122.8543 0.0000 31084.6494 -117300.2387 302.2269 -148384.8881 -117247.7431 300.5173 -3.1842 8.8943 496933.8958 1.8467 1.9398
ENERGY: 44000 1710.3658 2418.2573 3224.8855 0.0000 -175756.4123 19994.7922 127.1659 0.0000 30906.0415 -117374.9041 300.4903 -148280.9457 -117326.2186 300.8212 -43.1489 -122.7582 497337.9099 2.1266 2.0983
ENERGY: 45000 1594.7595 2372.9219 3214.9491 0.0000 -175930.1937 20050.2041 140.1684 0.0000 30892.6405 -117664.5502 300.3600 -148557.1907 -117607.0420 300.2401 -16.2620 70.8678 496223.2598 -2.0267 -1.4216
TCL: Setting parameter constraintScaling to 0.01953125
TCL: Running for 5000 steps
ETITLE: TS BOND ANGLE DIHED IMPRP ELECT VDW BOUNDARY MISC KINETIC TOTAL TEMP POTENTIAL TOTAL3 TEMPAVG PRESSURE GPRESSURE VOLUME PRESSAVG GPRESSAVG
ENERGY: 45000 1594.7595 2372.9219 3214.9491 0.0000 -175930.1937 20050.2041 70.0842 0.0000 30890.5840 -117736.6909 300.3400 -148627.2749 -117695.9967 300.3400 -24.8339 49.3488 496223.2598 -24.8339 49.3488
ENERGY: 46000 1538.9047 2399.5193 3235.4681 0.0000 -175835.2849 19974.5003 84.0167 0.0000 31082.0690 -117520.8068 302.2018 -148602.8758 -117484.2419 300.0109 93.1438 89.5718 496635.6158 17.0942 17.1054
ENERGY: 47000 1609.8415 2380.9268 3227.9607 0.0000 -175982.8983 19966.0363 94.2896 0.0000 30876.5638 -117827.2795 300.2037 -148703.8434 -117785.5194 299.4235 -131.7712 -128.1338 496879.6998 3.9972 3.9020
ENERGY: 48000 1635.0782 2381.7310 3197.1840 0.0000 -175823.1246 19979.0922 104.3864 0.0000 30796.9224 -117728.7303 299.4294 -148525.6528 -117682.4654 300.0098 64.1698 91.7060 497011.2719 -7.8490 -7.5510
ENERGY: 49000 1566.8684 2395.8388 3254.4999 0.0000 -175710.5999 20010.6057 99.6573 0.0000 30808.8839 -117574.2459 299.5457 -148383.1298 -117521.0085 299.4702 55.6203 55.0408 498194.3960 12.7980 12.8468
ENERGY: 50000 1629.3050 2373.4814 3197.4490 0.0000 -175338.2186 19780.0100 106.4302 0.0000 30795.3616 -117456.1814 299.4142 -148251.5431 -117425.2886 300.2357 27.4485 25.1080 497316.4923 6.5350 6.3063
TCL: Setting parameter constraintScaling to 0
TCL: Running for 5000 steps
ETITLE: TS BOND ANGLE DIHED IMPRP ELECT VDW BOUNDARY MISC KINETIC TOTAL TEMP POTENTIAL TOTAL3 TEMPAVG PRESSURE GPRESSURE VOLUME PRESSAVG GPRESSAVG
ENERGY: 50000 1629.3050 2373.4814 3197.4490 0.0000 -175338.2186 19780.0100 0.0000 0.0000 30793.2797 -117564.6936 299.3940 -148357.9733 -117519.5166 299.3940 5.2538 4.3792 497316.4923 5.2538 4.3792
ENERGY: 51000 1667.8257 2363.7466 3200.9153 0.0000 -175316.9816 19863.9031 0.0000 0.0000 30422.4404 -117798.1504 295.7884 -148220.5909 -117760.7233 299.8767 -112.0056 -35.6708 497300.0566 0.5599 0.4868
ENERGY: 52000 1624.8404 2450.5156 3203.8678 0.0000 -175894.3830 19926.4531 0.0000 0.0000 31058.9230 -117629.7831 301.9767 -148688.7062 -117585.3432 299.7336 -92.0579 -59.6502 496590.7987 4.0248 3.9672
ENERGY: 53000 1602.9436 2501.6723 3237.9211 0.0000 -176376.3738 20258.9763 0.0000 0.0000 30779.3762 -117995.4842 299.2588 -148774.8604 -117950.8052 299.7695 -51.5828 -25.6165 496128.5361 1.2594 1.7796
ENERGY: 54000 1642.1403 2372.7682 3207.3933 0.0000 -175626.5424 19807.0089 0.0000 0.0000 30870.5823 -117726.6495 300.1456 -148597.2318 -117687.6095 299.7513 -4.1828 55.2190 495059.4096 -0.4267 -0.3049
ENERGY: 55000 1621.1174 2485.0371 3215.4713 0.0000 -176066.1883 19983.6149 0.0000 0.0000 30970.1095 -117790.8382 301.1132 -148760.9477 -117733.4280 299.9340 -131.5869 -66.8734 496308.4264 12.3220 12.4569
