Info: SIMULATION PARAMETERS:
Info: TIMESTEP               1
Info: NUMBER OF STEPS        0
Info: STEPS PER CYCLE        10
Info: PERIODIC CELL BASIS 1  72.449 0 0
Info: PERIODIC CELL BASIS 2  0 93.247 0
Info: PERIODIC CELL BASIS 3  0 0 79.185
Info: PERIODIC CELL CENTER   -0.248 -0.156 -0.047
Info: WRAPPING WATERS AROUND PERIODIC BOUNDARIES ON OUTPUT.
Info: WRAPPING ALL CLUSTERS AROUND PERIODIC BOUNDARIES ON OUTPUT.
Info: FIRST LDB TIMESTEP     50
Info: LAST LDB TIMESTEP     -1
Info: HOM BACKGROUND SCALING 1
Info: PME BACKGROUND SCALING 1
Info: MIN ATOMS PER PATCH    40
Info: VELOCITY FILE          ../replicas/rep47/equilibration/eq1.vel
Info: CENTER OF MASS MOVING INITIALLY? NO
Info: DIELECTRIC             1
Info: EXCLUDE                SCALED ONE-FOUR
Info: 1-4 ELECTROSTATICS SCALED BY 0.833333
Info: MODIFIED 1-4 VDW PARAMETERS WILL BE USED
Info: DCD FILENAME           ../replicas/rep47/equilibration/eq2.dcd
Info: DCD FREQUENCY          5000
Info: DCD FIRST STEP         5000
Info: DCD FILE WILL CONTAIN UNIT CELL DATA
Info: XST FILENAME           ../replicas/rep47/equilibration/eq2.xst
Info: XST FREQUENCY          5000
Info: NO VELOCITY DCD OUTPUT
Info: NO FORCE DCD OUTPUT
Info: OUTPUT FILENAME        ../replicas/rep47/equilibration/eq2
Info: RESTART FILENAME       ../replicas/rep47/equilibration/eq2.restart
Info: RESTART FREQUENCY      5000
Info: BINARY RESTART FILES WILL BE USED
Info: SWITCHING ACTIVE
Info: SWITCHING ON           10
Info: SWITCHING OFF          12
Info: PAIRLIST DISTANCE      13.5
Info: PAIRLIST SHRINK RATE   0.01
Info: PAIRLIST GROW RATE     0.01
Info: PAIRLIST TRIGGER       0.3
Info: PAIRLISTS PER CYCLE    2
Info: PAIRLISTS ENABLED
Info: MARGIN                 0.48
Info: HYDROGEN GROUP CUTOFF  2.5
Info: PATCH DIMENSION        16.48
Info: ENERGY OUTPUT STEPS    500
Info: CROSSTERM ENERGY INCLUDED IN DIHEDRAL
Info: TIMING OUTPUT STEPS    5000
Info: PRESSURE OUTPUT STEPS  500
Info: HARMONIC CONSTRAINTS ACTIVE
Info: HARMONIC CONS EXP      2
Info: HARMONIC CONS SCALING  10
Info: LANGEVIN DYNAMICS ACTIVE
Info: LANGEVIN TEMPERATURE   300
Info: LANGEVIN USING BBK INTEGRATOR
Info: LANGEVIN DAMPING COEFFICIENT IS 5 INVERSE PS
Info: LANGEVIN DYNAMICS NOT APPLIED TO HYDROGENS
Info: BERENDSEN PRESSURE COUPLING ACTIVE
Info:     TARGET PRESSURE IS 1 BAR
Info:     COMPRESSIBILITY ESTIMATE IS 4.57e-05 BAR^(-1)
Info:     RELAXATION TIME IS 100 FS
Info:     APPLIED EVERY 2 STEPS
Info:     PRESSURE CONTROL IS GROUP-BASED
Info:       CELL FLUCTUATION IS ISOTROPIC
Info: PARTICLE MESH EWALD (PME) ACTIVE
Info: PME TOLERANCE               1e-06
Info: PME EWALD COEFFICIENT       0.257952
Info: PME INTERPOLATION ORDER     4
Info: PME GRID DIMENSIONS         80 96 80
Info: PME MAXIMUM GRID SPACING    1
Info: FULL ELECTROSTATIC EVALUATION FREQUENCY      2
Info: USING VERLET I (r-RESPA) MTS SCHEME.
Info: C1 SPLITTING OF LONG RANGE ELECTROSTATICS
Info: PLACING ATOMS IN PATCHES BY HYDROGEN GROUPS
Info: RIGID BONDS TO HYDROGEN : WATER
Info:         ERROR TOLERANCE : 1e-05
Info:          MAX ITERATIONS : 100
Info: RIGID WATER USING SETTLE ALGORITHM
Info: RANDOM NUMBER SEED     1503712890
Info: USE HYDROGEN BONDS?    NO
Info: Using AMBER format force field!
Info: AMBER PARM FILE        ../build/complex.top
Info: COORDINATE PDB         ../replicas/rep47/equilibration/eq1.coor
Info: Exclusions in PARM file will be ignored!
Info: SCNB (VDW SCALING)     2
Info: USING ARITHMETIC MEAN TO COMBINE L-J SIGMA PARAMETERS
Info: SUMMARY OF PARAMETERS:
Info: 71 BONDS
Info: 145 ANGLES
Info: 76 DIHEDRAL
Info: 0 IMPROPER
Info: 0 CROSSTERM
Info: 0 VDW
Info: 190 VDW_PAIRS
Info: 0 NBTHOLE_PAIRS
Info: STRUCTURE SUMMARY:
Info: 49394 ATOMS
Info: 49448 BONDS
Info: 8698 ANGLES
Info: 18780 DIHEDRALS
Info: 0 IMPROPERS
Info: 0 CROSSTERMS
Info: 0 EXCLUSIONS
Info: 2336 CONSTRAINTS
Info: 44667 RIGID BONDS
Info: 103515 DEGREES OF FREEDOM
Info: 17225 HYDROGEN GROUPS
Info: 4 ATOMS IN LARGEST HYDROGEN GROUP
Info: 17225 MIGRATION GROUPS
Info: 4 ATOMS IN LARGEST MIGRATION GROUP
Info: TOTAL MASS = 301478 amu
Info: TOTAL CHARGE = 1.00115e-05 e
Info: MASS DENSITY = 0.935846 g/cm^3
Info: ATOM DENSITY = 0.0923345 atoms/A^3
Info: ADDED 70656 IMPLICIT EXCLUSIONS
Info: NONBONDED TABLE R-SQUARED SPACING: 0.0625
Info: NONBONDED TABLE SIZE: 769 POINTS
Info: REMOVING COM VELOCITY 0.00261297 0.0124907 -0.0295838
TCL: Running for 5000 steps
ETITLE: TS BOND ANGLE DIHED IMPRP ELECT VDW BOUNDARY MISC KINETIC TOTAL TEMP POTENTIAL TOTAL3 TEMPAVG PRESSURE GPRESSURE VOLUME PRESSAVG GPRESSAVG
ENERGY: 0 378.8831 1192.1622 2926.8442 0.0000 -213000.5989 29758.0918 0.0000 0.0000 10027.3337 -168717.2838 97.4928 -178744.6175 -168707.7057 97.4928 -2252.0101 -2357.1177 534946.2959 -2252.0101 -2357.1177
ENERGY: 1000 1225.5719 1969.2002 3127.9133 0.0000 -193756.3685 26558.6336 790.3826 0.0000 24171.8237 -135912.8432 235.0155 -160084.6669 -135888.0392 218.9061 -46.9805 3.3434 523333.7525 -16.3232 -16.4147
ENERGY: 2000 1489.8844 2142.7010 3106.9116 0.0000 -184134.8388 23281.2767 825.9198 0.0000 28034.3207 -125253.8246 272.5694 -153288.1453 -125213.6403 264.0816 -120.3745 -26.5758 516915.7525 -17.1021 -17.3548
ENERGY: 3000 1524.6084 2203.0289 3166.9950 0.0000 -179879.7437 22208.0212 813.0091 0.0000 29558.9461 -120405.1351 287.3929 -149964.0812 -120357.4272 283.9697 -48.0136 42.6339 510734.5414 -21.7495 -22.0187
ENERGY: 4000 1550.9820 2248.7077 3145.6578 0.0000 -177214.1329 21181.1942 830.4445 0.0000 30430.6702 -117826.4764 295.8684 -148257.1467 -117776.0518 293.8729 -35.4322 21.8227 507875.7427 -12.5427 -12.8905
ENERGY: 5000 1568.9091 2201.5270 3129.5424 0.0000 -176126.5483 20542.1592 785.3072 0.0000 30648.6881 -117250.4155 297.9881 -147899.1035 -117205.4767 296.4743 -4.0383 -22.1724 506527.8391 1.0501 1.0195
TCL: Setting parameter constraintScaling to 5.0
TCL: Running for 5000 steps
ETITLE: TS BOND ANGLE DIHED IMPRP ELECT VDW BOUNDARY MISC KINETIC TOTAL TEMP POTENTIAL TOTAL3 TEMPAVG PRESSURE GPRESSURE VOLUME PRESSAVG GPRESSAVG
ENERGY: 5000 1568.9091 2201.5270 3129.5424 0.0000 -176126.5483 20542.1592 392.6536 0.0000 30646.6580 -117645.0991 297.9684 -148291.7571 -117598.4175 297.9684 15.6479 6.4856 506527.8391 15.6479 6.4856
ENERGY: 6000 1647.9101 2370.3116 3183.6964 0.0000 -175445.3449 20037.5088 629.7992 0.0000 30665.8394 -116910.2794 298.1549 -147576.1188 -116863.5691 298.6614 -93.2341 -37.3338 503602.9182 -5.5709 -5.8832
ENERGY: 7000 1632.8644 2352.7508 3157.8787 0.0000 -176072.7692 20528.7135 652.5487 0.0000 30438.3878 -117309.6254 295.9435 -147748.0131 -117271.0567 297.9864 -104.9649 -3.4554 502783.3025 -20.4909 -20.6438
ENERGY: 8000 1610.2966 2307.4478 3158.3576 0.0000 -175604.5872 20183.6457 650.5810 0.0000 30619.6334 -117074.6252 297.7057 -147694.2586 -117033.2820 299.3882 -113.9311 -15.1643 501482.1277 -2.5686 -2.0599
ENERGY: 9000 1606.9445 2327.5005 3146.3848 0.0000 -175856.2642 20133.2303 643.1893 0.0000 30634.9579 -117364.0569 297.8547 -147999.0148 -117333.7980 298.9706 -80.1987 -41.2264 501209.2478 1.3364 1.1309
ENERGY: 10000 1586.9270 2352.3356 3169.5878 0.0000 -176029.7150 20302.6441 635.6450 0.0000 30645.5924 -117336.9832 297.9580 -147982.5756 -117292.2668 297.9617 -60.8559 37.8474 500433.6396 -2.5733 -2.5249
TCL: Setting parameter constraintScaling to 2.5
TCL: Running for 5000 steps
ETITLE: TS BOND ANGLE DIHED IMPRP ELECT VDW BOUNDARY MISC KINETIC TOTAL TEMP POTENTIAL TOTAL3 TEMPAVG PRESSURE GPRESSURE VOLUME PRESSAVG GPRESSAVG
ENERGY: 10000 1586.9270 2352.3356 3169.5878 0.0000 -176029.7150 20302.6441 317.8225 0.0000 30643.5474 -117656.8507 297.9382 -148300.3981 -117613.4730 297.9382 -61.9797 30.6942 500433.6396 -61.9797 30.6942
ENERGY: 11000 1597.3512 2325.5883 3190.6833 0.0000 -175782.2607 20174.0147 502.4872 0.0000 30886.3122 -117105.8238 300.2985 -147992.1360 -117076.4319 299.1479 -15.0808 38.1364 501314.5156 5.4983 4.7570
ENERGY: 12000 1621.8163 2301.5419 3196.2579 0.0000 -175914.8646 20101.9781 503.1619 0.0000 30761.8630 -117428.2455 299.0885 -148190.1085 -117374.0658 298.7604 -77.4598 -17.9679 500388.2309 -5.1881 -4.6796
ENERGY: 13000 1661.2201 2354.0980 3165.2097 0.0000 -175773.0389 20116.0899 507.1850 0.0000 30790.4292 -117178.8068 299.3663 -147969.2361 -117126.9457 299.4399 105.4986 72.1088 498696.1334 -5.3085 -5.2917
ENERGY: 14000 1597.0760 2304.8120 3178.6033 0.0000 -176048.9830 20293.3664 540.2228 0.0000 30824.4586 -117310.4439 299.6971 -148134.9026 -117261.4984 298.8751 118.8664 34.1011 499799.1530 12.4724 12.5364
ENERGY: 15000 1597.4723 2297.7299 3206.6302 0.0000 -175891.0944 20086.0963 510.4766 0.0000 30925.4017 -117267.2875 300.6785 -148192.6892 -117225.4391 299.7801 -59.9210 -69.9397 499678.9547 8.1538 7.7761
TCL: Setting parameter constraintScaling to 1.25
TCL: Running for 5000 steps
ETITLE: TS BOND ANGLE DIHED IMPRP ELECT VDW BOUNDARY MISC KINETIC TOTAL TEMP POTENTIAL TOTAL3 TEMPAVG PRESSURE GPRESSURE VOLUME PRESSAVG GPRESSAVG
ENERGY: 15000 1597.4723 2297.7299 3206.6302 0.0000 -175891.0944 20086.0963 255.2383 0.0000 30923.3348 -117524.5927 300.6585 -148447.9274 -117478.3191 300.6585 -92.7781 -104.9265 499678.9547 -92.7781 -104.9265
ENERGY: 16000 1606.4289 2319.3516 3181.0729 0.0000 -175343.9805 19850.4090 405.0896 0.0000 30704.7316 -117276.8967 298.5330 -147981.6284 -117223.3098 298.6183 -8.7058 -9.4251 499246.5787 3.9518 3.6850
ENERGY: 17000 1587.3527 2396.8536 3202.8686 0.0000 -175903.0526 20070.2870 395.0452 0.0000 30595.0450 -117655.6005 297.4666 -148250.6455 -117620.6566 299.6760 -22.4458 33.4494 498227.1055 -0.7040 -0.7352
ENERGY: 18000 1621.8617 2376.2010 3199.0564 0.0000 -175993.9584 20083.6754 387.3219 0.0000 30632.4175 -117693.4245 297.8300 -148325.8420 -117641.5923 298.8346 -165.9913 -64.0190 498224.9716 -1.3266 -1.2340
ENERGY: 19000 1606.1932 2319.4904 3208.5943 0.0000 -175575.4108 19904.1099 393.4551 0.0000 30682.9842 -117460.5836 298.3216 -148143.5679 -117401.9696 298.4143 -100.3169 -7.9374 498511.1988 11.6860 11.6465
ENERGY: 20000 1594.7290 2329.1540 3204.4115 0.0000 -176188.3644 20426.9756 396.0263 0.0000 30656.2393 -117580.8286 298.0616 -148237.0680 -117536.6196 298.6108 25.5199 48.4986 498999.5009 9.8717 9.9411
TCL: Setting parameter constraintScaling to 0.625
TCL: Running for 5000 steps
ETITLE: TS BOND ANGLE DIHED IMPRP ELECT VDW BOUNDARY MISC KINETIC TOTAL TEMP POTENTIAL TOTAL3 TEMPAVG PRESSURE GPRESSURE VOLUME PRESSAVG GPRESSAVG
ENERGY: 20000 1594.7290 2329.1540 3204.4115 0.0000 -176188.3644 20426.9756 198.0132 0.0000 30654.1990 -117780.8821 298.0417 -148435.0811 -117737.7313 298.0417 15.8000 47.4238 498999.5009 15.8000 47.4238
ENERGY: 21000 1602.6700 2377.9015 3218.5558 0.0000 -175601.5836 20055.8740 314.8902 0.0000 30858.3728 -117173.3193 300.0268 -148031.6921 -117131.9198 300.3666 -65.1582 3.0657 498400.5226 2.1449 2.5215
ENERGY: 22000 1599.9362 2395.2633 3171.9720 0.0000 -175742.9222 20087.5357 316.2314 0.0000 30892.0101 -117279.9736 300.3539 -148171.9837 -117231.0408 299.9338 -28.0259 24.1938 498838.7432 2.4283 2.6278
ENERGY: 23000 1607.4787 2367.1389 3228.6744 0.0000 -175487.6779 19855.4786 313.4041 0.0000 30816.4244 -117299.0788 299.6190 -148115.5032 -117253.3292 299.6822 99.9415 -5.2669 498776.9719 8.2339 8.1527
ENERGY: 24000 1574.6979 2379.7639 3167.3007 0.0000 -175580.8668 19953.2670 313.0612 0.0000 30856.1281 -117336.6481 300.0050 -148192.7762 -117280.2494 299.2008 28.7242 60.4544 497737.2317 0.5107 0.5426
ENERGY: 25000 1615.9446 2354.7521 3184.6514 0.0000 -176125.9461 20336.8716 309.4991 0.0000 30744.2780 -117579.9492 298.9175 -148324.2272 -117528.7626 299.5194 10.9263 84.6737 498788.8041 3.8891 3.6521
TCL: Setting parameter constraintScaling to 0.3125
TCL: Running for 5000 steps
ETITLE: TS BOND ANGLE DIHED IMPRP ELECT VDW BOUNDARY MISC KINETIC TOTAL TEMP POTENTIAL TOTAL3 TEMPAVG PRESSURE GPRESSURE VOLUME PRESSAVG GPRESSAVG
ENERGY: 25000 1615.9446 2354.7521 3184.6514 0.0000 -176125.9461 20336.8716 154.7495 0.0000 30742.2224 -117736.7544 298.8976 -148478.9768 -117693.7354 298.8976 16.2498 101.5030 498788.8041 16.2498 101.5030
ENERGY: 26000 1659.3378 2314.5998 3219.0773 0.0000 -176547.7746 20459.0535 252.3187 0.0000 30809.6964 -117833.6910 299.5536 -148643.3874 -117793.2222 299.1975 8.7884 -48.8154 498376.0526 -4.9776 -5.6990
ENERGY: 27000 1606.1947 2396.4418 3227.8036 0.0000 -176318.2263 20199.5181 245.5848 0.0000 30757.8408 -117884.8426 299.0494 -148642.6833 -117844.1132 298.4900 -82.8827 -41.7386 497350.2157 0.3914 0.4365
ENERGY: 28000 1647.5466 2309.1941 3207.8204 0.0000 -175595.5026 20162.4125 250.1424 0.0000 30713.2256 -117305.1609 298.6156 -148018.3865 -117253.5994 299.2356 -79.5261 -0.1917 498873.6784 11.4590 11.3782
ENERGY: 29000 1629.1638 2373.6564 3198.9052 0.0000 -176002.1946 20066.3606 245.4928 0.0000 31018.6357 -117469.9801 301.5850 -148488.6158 -117416.3334 299.0543 1.2748 19.2401 498817.7443 0.1362 0.3176
ENERGY: 30000 1618.6654 2333.8051 3195.4841 0.0000 -175664.7401 19999.7392 270.3878 0.0000 30815.3758 -117431.2826 299.6088 -148246.6584 -117381.9459 299.9043 -69.1310 -19.4020 498955.0377 4.5828 4.9431
TCL: Setting parameter constraintScaling to 0.15625
TCL: Running for 5000 steps
ETITLE: TS BOND ANGLE DIHED IMPRP ELECT VDW BOUNDARY MISC KINETIC TOTAL TEMP POTENTIAL TOTAL3 TEMPAVG PRESSURE GPRESSURE VOLUME PRESSAVG GPRESSAVG
ENERGY: 30000 1618.6654 2333.8051 3195.4841 0.0000 -175664.7400 19999.7392 135.1939 0.0000 30813.3054 -117568.5469 299.5887 -148381.8523 -117525.2156 299.5887 -107.2299 -58.7778 498955.0377 -107.2299 -58.7778
ENERGY: 31000 1627.5301 2385.9567 3211.8052 0.0000 -175709.4364 20045.7958 198.7940 0.0000 30668.0575 -117571.4970 298.1765 -148239.5545 -117536.7222 298.7683 -59.5726 4.3350 497867.1701 7.2418 7.4465
ENERGY: 32000 1695.7393 2386.1975 3217.3626 0.0000 -176031.2867 20136.7027 214.7170 0.0000 30595.4624 -117785.1051 297.4706 -148380.5675 -117748.9974 298.7318 -77.7877 -55.3052 497836.3190 -3.3562 -3.9127
ENERGY: 33000 1591.5100 2373.1719 3234.0991 0.0000 -175678.4907 19794.7459 210.0960 0.0000 30856.1404 -117618.7273 300.0051 -148474.8677 -117558.0146 299.5792 16.1030 59.8957 496402.5803 -5.8803 -5.2567
ENERGY: 34000 1617.5929 2369.9506 3248.7386 0.0000 -175783.1069 20045.8050 224.9671 0.0000 30844.2635 -117431.7893 299.8897 -148276.0528 -117396.9889 300.7019 29.4433 -2.5495 496840.9104 -1.7145 -1.7971
ENERGY: 35000 1674.3201 2380.1533 3277.5041 0.0000 -176338.3137 20292.0454 231.4489 0.0000 30690.5341 -117792.3079 298.3950 -148482.8420 -117755.4118 299.2641 6.3515 16.2882 497028.6613 6.5154 5.4868
TCL: Setting parameter constraintScaling to 0.078125
TCL: Running for 5000 steps
ETITLE: TS BOND ANGLE DIHED IMPRP ELECT VDW BOUNDARY MISC KINETIC TOTAL TEMP POTENTIAL TOTAL3 TEMPAVG PRESSURE GPRESSURE VOLUME PRESSAVG GPRESSAVG
ENERGY: 35000 1674.3201 2380.1533 3277.5041 0.0000 -176338.3137 20292.0454 115.7244 0.0000 30688.5099 -117910.0566 298.3753 -148598.5664 -117866.6645 298.3753 8.0858 17.7382 497028.6613 8.0858 17.7382
ENERGY: 36000 1665.3550 2457.4692 3215.4988 0.0000 -176076.8046 20171.5048 140.1669 0.0000 30797.5723 -117629.2377 299.4357 -148426.8100 -117579.8652 299.3657 -58.6412 -7.3628 497601.0301 9.1423 8.9870
ENERGY: 37000 1675.1313 2405.3160 3216.8313 0.0000 -175973.1669 20139.4960 163.0597 0.0000 30907.8084 -117465.5242 300.5075 -148373.3326 -117422.8513 300.2251 73.5042 11.9231 497993.6947 6.5422 6.8454
ENERGY: 38000 1635.5510 2430.0686 3198.1752 0.0000 -176018.0595 20208.0905 166.2106 0.0000 30795.3074 -117584.6562 299.4137 -148379.9636 -117535.5974 298.7526 -105.9260 8.9558 497676.9862 -2.0039 -2.3005
ENERGY: 39000 1553.0878 2368.3345 3229.7488 0.0000 -175800.3005 19863.4478 163.6768 0.0000 30950.0390 -117671.9658 300.9181 -148622.0048 -117631.6176 299.2910 -56.3797 -31.9821 497329.3682 1.7004 2.3034
ENERGY: 40000 1656.2558 2443.9045 3200.8811 0.0000 -175964.2648 20009.8323 172.5730 0.0000 30784.9314 -117695.8867 299.3128 -148480.8181 -117642.7768 299.1904 84.9525 90.2285 496756.9226 -3.0037 -3.5906
TCL: Setting parameter constraintScaling to 0.0390625
TCL: Running for 5000 steps
ETITLE: TS BOND ANGLE DIHED IMPRP ELECT VDW BOUNDARY MISC KINETIC TOTAL TEMP POTENTIAL TOTAL3 TEMPAVG PRESSURE GPRESSURE VOLUME PRESSAVG GPRESSAVG
ENERGY: 40000 1656.2558 2443.9045 3200.8811 0.0000 -175964.2648 20009.8323 86.2865 0.0000 30782.8753 -117784.2293 299.2928 -148567.1046 -117739.0067 299.2928 59.7516 70.0724 496756.9226 59.7516 70.0724
ENERGY: 41000 1659.9384 2449.9005 3230.7308 0.0000 -176291.5340 20224.9298 106.9048 0.0000 30714.1940 -117904.9358 298.6250 -148619.1298 -117855.0860 300.0045 78.0408 134.3135 496227.5381 1.9138 2.2764
ENERGY: 42000 1635.7072 2451.4157 3196.7043 0.0000 -175681.4324 19860.4571 110.8353 0.0000 30849.0103 -117577.3025 299.9358 -148426.3128 -117511.8339 299.7822 6.2882 2.5704 496002.0047 7.8364 7.8695
ENERGY: 43000 1670.6776 2458.4832 3251.2716 0.0000 -176257.3916 20034.0518 119.8589 0.0000 30798.1512 -117924.8973 299.4413 -148723.0485 -117879.5924 300.3980 -122.1174 -80.3910 495624.6983 -0.8413 -0.8928
ENERGY: 44000 1655.1281 2403.2787 3208.6679 0.0000 -176218.3045 20075.1482 123.1935 0.0000 30820.5542 -117932.3341 299.6591 -148752.8882 -117883.2198 299.1429 -56.5183 13.3066 496604.1344 2.2533 1.9609
ENERGY: 45000 1616.5244 2454.7193 3198.2639 0.0000 -176102.5307 20209.7633 110.3452 0.0000 30830.7916 -117682.1230 299.7587 -148512.9146 -117631.0213 300.0260 -31.0496 65.0893 496215.0083 -0.7249 -0.7236
TCL: Setting parameter constraintScaling to 0.01953125
TCL: Running for 5000 steps
ETITLE: TS BOND ANGLE DIHED IMPRP ELECT VDW BOUNDARY MISC KINETIC TOTAL TEMP POTENTIAL TOTAL3 TEMPAVG PRESSURE GPRESSURE VOLUME PRESSAVG GPRESSAVG
ENERGY: 45000 1616.5244 2454.7193 3198.2639 0.0000 -176102.5307 20209.7633 55.1726 0.0000 30828.7630 -117739.3241 299.7390 -148568.0872 -117694.3322 299.7390 -41.9447 49.1307 496215.0083 -41.9447 49.1307
ENERGY: 46000 1641.1626 2421.0350 3224.0599 0.0000 -175760.7006 19944.0560 76.3362 0.0000 30731.7040 -117722.3469 298.7953 -148454.0509 -117680.0739 299.9387 16.1283 -8.5258 496185.7658 1.0581 1.4779
ENERGY: 47000 1581.7737 2409.2416 3162.5466 0.0000 -176086.9513 20007.7615 80.5118 0.0000 30901.1381 -117943.9779 300.4426 -148845.1160 -117892.4385 299.7550 -72.9165 -61.4838 495210.8874 1.4145 1.1568
ENERGY: 48000 1638.7151 2401.7572 3199.1912 0.0000 -175744.9863 20038.5985 81.7915 0.0000 30789.6546 -117595.2782 299.3587 -148384.9327 -117542.6998 298.9572 16.7157 72.3318 497723.4655 17.2201 17.3898
ENERGY: 49000 1641.2559 2421.1213 3213.6552 0.0000 -175880.8308 19978.4052 85.8835 0.0000 30659.4625 -117881.0472 298.0929 -148540.5097 -117839.2987 299.8667 -134.7552 -54.3939 496439.9457 -1.7338 -2.1057
ENERGY: 50000 1610.2445 2362.7821 3220.4265 0.0000 -176191.3237 20095.5144 90.6575 0.0000 30697.4374 -118114.2612 298.4621 -148811.6987 -118067.2059 297.9245 -110.7688 -83.3378 497724.9231 4.1385 3.7164
TCL: Setting parameter constraintScaling to 0
TCL: Running for 5000 steps
ETITLE: TS BOND ANGLE DIHED IMPRP ELECT VDW BOUNDARY MISC KINETIC TOTAL TEMP POTENTIAL TOTAL3 TEMPAVG PRESSURE GPRESSURE VOLUME PRESSAVG GPRESSAVG
ENERGY: 50000 1610.2445 2362.7821 3220.4265 0.0000 -176191.3237 20095.5144 0.0000 0.0000 30695.3757 -118206.9805 298.4421 -148902.3562 -118164.0657 298.4421 -120.0221 -108.1312 497724.9231 -120.0221 -108.1312
ENERGY: 51000 1637.4286 2380.7610 3217.5780 0.0000 -176110.4907 20212.9887 0.0000 0.0000 30693.8900 -117967.8443 298.4276 -148661.7343 -117926.9800 298.7460 -75.5733 -56.4938 496626.5630 1.3891 0.9845
ENERGY: 52000 1638.8987 2429.0760 3239.0746 0.0000 -175927.0606 19897.0552 0.0000 0.0000 30881.5208 -117841.4352 300.2519 -148722.9561 -117803.3160 299.1861 -52.1696 67.5685 495355.9333 -1.3242 -1.6098
ENERGY: 53000 1658.7913 2355.1115 3179.1459 0.0000 -176031.8201 19996.5699 0.0000 0.0000 30794.1488 -118048.0527 299.4024 -148842.2015 -118004.4996 297.9697 -146.3328 -33.4725 496104.4778 1.7866 1.3344
ENERGY: 54000 1668.4109 2488.6791 3208.3675 0.0000 -176072.8187 19989.8655 0.0000 0.0000 31052.9131 -117664.5826 301.9183 -148717.4957 -117621.1200 299.8759 -57.2539 25.9139 495641.3413 -11.9196 -12.0209
ENERGY: 55000 1600.7360 2410.3720 3202.7498 0.0000 -175808.7965 20015.2763 0.0000 0.0000 30991.7356 -117587.9268 301.3235 -148579.6624 -117539.3998 300.6757 -69.3078 2.9280 497835.4552 14.4919 13.9756
