Info: SIMULATION PARAMETERS:
Info: TIMESTEP               1
Info: NUMBER OF STEPS        0
Info: STEPS PER CYCLE        10
Info: PERIODIC CELL BASIS 1  72.449 0 0
Info: PERIODIC CELL BASIS 2  0 93.247 0
Info: PERIODIC CELL BASIS 3  0 0 79.185
Info: PERIODIC CELL CENTER   -0.248 -0.156 -0.047
Info: WRAPPING WATERS AROUND PERIODIC BOUNDARIES ON OUTPUT.
Info: WRAPPING ALL CLUSTERS AROUND PERIODIC BOUNDARIES ON OUTPUT.
Info: FIRST LDB TIMESTEP     50
Info: LAST LDB TIMESTEP     -1
Info: HOM BACKGROUND SCALING 1
Info: PME BACKGROUND SCALING 1
Info: MIN ATOMS PER PATCH    40
Info: VELOCITY FILE          ../replicas/rep98/equilibration/eq1.vel
Info: CENTER OF MASS MOVING INITIALLY? NO
Info: DIELECTRIC             1
Info: EXCLUDE                SCALED ONE-FOUR
Info: 1-4 ELECTROSTATICS SCALED BY 0.833333
Info: MODIFIED 1-4 VDW PARAMETERS WILL BE USED
Info: DCD FILENAME           ../replicas/rep98/equilibration/eq2.dcd
Info: DCD FREQUENCY          5000
Info: DCD FIRST STEP         5000
Info: DCD FILE WILL CONTAIN UNIT CELL DATA
Info: XST FILENAME           ../replicas/rep98/equilibration/eq2.xst
Info: XST FREQUENCY          5000
Info: NO VELOCITY DCD OUTPUT
Info: NO FORCE DCD OUTPUT
Info: OUTPUT FILENAME        ../replicas/rep98/equilibration/eq2
Info: RESTART FILENAME       ../replicas/rep98/equilibration/eq2.restart
Info: RESTART FREQUENCY      5000
Info: BINARY RESTART FILES WILL BE USED
Info: SWITCHING ACTIVE
Info: SWITCHING ON           10
Info: SWITCHING OFF          12
Info: PAIRLIST DISTANCE      13.5
Info: PAIRLIST SHRINK RATE   0.01
Info: PAIRLIST GROW RATE     0.01
Info: PAIRLIST TRIGGER       0.3
Info: PAIRLISTS PER CYCLE    2
Info: PAIRLISTS ENABLED
Info: MARGIN                 0.48
Info: HYDROGEN GROUP CUTOFF  2.5
Info: PATCH DIMENSION        16.48
Info: ENERGY OUTPUT STEPS    500
Info: CROSSTERM ENERGY INCLUDED IN DIHEDRAL
Info: TIMING OUTPUT STEPS    5000
Info: PRESSURE OUTPUT STEPS  500
Info: HARMONIC CONSTRAINTS ACTIVE
Info: HARMONIC CONS EXP      2
Info: HARMONIC CONS SCALING  10
Info: LANGEVIN DYNAMICS ACTIVE
Info: LANGEVIN TEMPERATURE   300
Info: LANGEVIN USING BBK INTEGRATOR
Info: LANGEVIN DAMPING COEFFICIENT IS 5 INVERSE PS
Info: LANGEVIN DYNAMICS NOT APPLIED TO HYDROGENS
Info: BERENDSEN PRESSURE COUPLING ACTIVE
Info:     TARGET PRESSURE IS 1 BAR
Info:     COMPRESSIBILITY ESTIMATE IS 4.57e-05 BAR^(-1)
Info:     RELAXATION TIME IS 100 FS
Info:     APPLIED EVERY 2 STEPS
Info:     PRESSURE CONTROL IS GROUP-BASED
Info:       CELL FLUCTUATION IS ISOTROPIC
Info: PARTICLE MESH EWALD (PME) ACTIVE
Info: PME TOLERANCE               1e-06
Info: PME EWALD COEFFICIENT       0.257952
Info: PME INTERPOLATION ORDER     4
Info: PME GRID DIMENSIONS         80 96 80
Info: PME MAXIMUM GRID SPACING    1
Info: FULL ELECTROSTATIC EVALUATION FREQUENCY      2
Info: USING VERLET I (r-RESPA) MTS SCHEME.
Info: C1 SPLITTING OF LONG RANGE ELECTROSTATICS
Info: PLACING ATOMS IN PATCHES BY HYDROGEN GROUPS
Info: RIGID BONDS TO HYDROGEN : WATER
Info:         ERROR TOLERANCE : 1e-05
Info:          MAX ITERATIONS : 100
Info: RIGID WATER USING SETTLE ALGORITHM
Info: RANDOM NUMBER SEED     1503721492
Info: USE HYDROGEN BONDS?    NO
Info: Using AMBER format force field!
Info: AMBER PARM FILE        ../build/complex.top
Info: COORDINATE PDB         ../replicas/rep98/equilibration/eq1.coor
Info: Exclusions in PARM file will be ignored!
Info: SCNB (VDW SCALING)     2
Info: USING ARITHMETIC MEAN TO COMBINE L-J SIGMA PARAMETERS
Info: SUMMARY OF PARAMETERS:
Info: 71 BONDS
Info: 145 ANGLES
Info:   145 HARMONIC
Info:   0 COSINE-BASED
Info: 76 DIHEDRAL
Info: 0 IMPROPER
Info: 0 CROSSTERM
Info: 0 VDW
Info: 190 VDW_PAIRS
Info: 0 NBTHOLE_PAIRS
Info: STRUCTURE SUMMARY:
Info: 49394 ATOMS
Info: 49448 BONDS
Info: 8698 ANGLES
Info: 18780 DIHEDRALS
Info: 0 IMPROPERS
Info: 0 CROSSTERMS
Info: 0 EXCLUSIONS
Info: 2336 CONSTRAINTS
Info: 44667 RIGID BONDS
Info: 103515 DEGREES OF FREEDOM
Info: 17225 HYDROGEN GROUPS
Info: 4 ATOMS IN LARGEST HYDROGEN GROUP
Info: 17225 MIGRATION GROUPS
Info: 4 ATOMS IN LARGEST MIGRATION GROUP
Info: TOTAL MASS = 301478 amu
Info: TOTAL CHARGE = 1.00115e-05 e
Info: MASS DENSITY = 0.935846 g/cm^3
Info: ATOM DENSITY = 0.0923345 atoms/A^3
Info: ADDED 70656 IMPLICIT EXCLUSIONS
Info: NONBONDED TABLE R-SQUARED SPACING: 0.0625
Info: NONBONDED TABLE SIZE: 769 POINTS
Info: REMOVING COM VELOCITY 0.0218061 -0.019532 -0.0193313
TCL: Running for 5000 steps
ETITLE: TS BOND ANGLE DIHED IMPRP ELECT VDW BOUNDARY MISC KINETIC TOTAL TEMP POTENTIAL TOTAL3 TEMPAVG PRESSURE GPRESSURE VOLUME PRESSAVG GPRESSAVG
ENERGY: 0 402.6939 1203.8151 2908.2800 0.0000 -212730.4253 29705.2327 0.0000 0.0000 10037.9999 -168472.4038 97.5965 -178510.4036 -168462.7225 97.5965 -2331.9686 -2434.5297 534946.2959 -2331.9686 -2434.5297
ENERGY: 1000 1203.4044 1977.8530 3132.4270 0.0000 -193487.7983 26674.3028 798.7997 0.0000 24256.5784 -135444.4328 235.8396 -159701.0113 -135412.8224 218.6297 -86.9892 -19.0757 521665.6253 -23.0381 -23.1506
ENERGY: 2000 1443.2885 2189.4808 3123.4473 0.0000 -184244.6584 23560.0184 798.8377 0.0000 28133.5071 -124996.0785 273.5338 -153129.5856 -124961.8465 265.7425 35.4500 2.9679 515773.2926 -26.8460 -27.0032
ENERGY: 3000 1517.2258 2179.0082 3146.2750 0.0000 -178829.6560 21423.2909 783.0743 0.0000 29831.8588 -119948.9229 290.0464 -149780.7817 -119903.3240 285.5792 -97.5924 -52.6462 510966.5485 -21.4655 -21.4601
ENERGY: 4000 1567.2633 2281.5173 3125.2051 0.0000 -176810.2613 20774.0914 795.9844 0.0000 30051.3704 -118214.8294 292.1806 -148266.1998 -118171.0716 292.5815 8.1024 8.2288 508113.0159 -7.9991 -8.2414
ENERGY: 5000 1596.9166 2275.5411 3160.4212 0.0000 -176404.2361 20698.2340 832.2332 0.0000 30641.2357 -117199.6542 297.9157 -147840.8900 -117152.5450 297.3425 -65.9998 15.1777 505156.2281 -22.8047 -22.7097
TCL: Setting parameter constraintScaling to 5.0
TCL: Running for 5000 steps
ETITLE: TS BOND ANGLE DIHED IMPRP ELECT VDW BOUNDARY MISC KINETIC TOTAL TEMP POTENTIAL TOTAL3 TEMPAVG PRESSURE GPRESSURE VOLUME PRESSAVG GPRESSAVG
ENERGY: 5000 1596.9166 2275.5411 3160.4212 0.0000 -176404.2361 20698.2340 416.1166 0.0000 30639.1814 -117617.8252 297.8957 -148257.0066 -117573.1649 297.8957 -63.0426 14.7673 505156.2281 -63.0426 14.7673
ENERGY: 6000 1558.3772 2355.1225 3159.2433 0.0000 -175807.8868 20263.1978 653.6453 0.0000 30797.3986 -117020.9022 299.4340 -147818.3008 -116973.2633 298.7303 -19.1810 -9.7964 503800.2478 -6.8345 -7.0362
ENERGY: 7000 1590.8745 2310.8490 3159.9881 0.0000 -175479.4819 20234.6309 631.8975 0.0000 30791.5205 -116759.7213 299.3769 -147551.2418 -116715.6936 299.5051 -34.6967 -2.6492 503268.0884 -4.6976 -4.7629
ENERGY: 8000 1610.9183 2319.7614 3154.2337 0.0000 -175818.5499 20299.2080 606.0418 0.0000 30833.3084 -116995.0783 299.7832 -147828.3867 -116963.6406 299.8070 -12.6446 -8.8607 504142.4387 8.3856 7.8269
ENERGY: 9000 1609.3041 2349.8132 3156.5235 0.0000 -175761.2130 20286.4295 621.0420 0.0000 30927.6612 -116810.4396 300.7005 -147738.1008 -116756.3199 299.3549 -42.8895 36.1780 502606.5200 -8.7050 -8.8681
ENERGY: 10000 1557.7344 2283.4388 3157.5288 0.0000 -175462.9945 20167.9266 650.9950 0.0000 30807.8813 -116837.4897 299.5359 -147645.3710 -116783.5257 299.3233 -35.7486 19.3769 502579.0786 -5.7512 -5.1186
TCL: Setting parameter constraintScaling to 2.5
TCL: Running for 5000 steps
ETITLE: TS BOND ANGLE DIHED IMPRP ELECT VDW BOUNDARY MISC KINETIC TOTAL TEMP POTENTIAL TOTAL3 TEMPAVG PRESSURE GPRESSURE VOLUME PRESSAVG GPRESSAVG
ENERGY: 10000 1557.7344 2283.4388 3157.5288 0.0000 -175462.9945 20167.9266 325.4975 0.0000 30805.8352 -117165.0333 299.5160 -147970.8685 -117121.5090 299.5160 -65.5479 -11.2546 502579.0786 -65.5479 -11.2546
ENERGY: 11000 1629.5675 2355.3326 3200.8462 0.0000 -175674.3522 20394.0579 514.4583 0.0000 30642.9837 -116937.1060 297.9327 -147580.0897 -116891.2809 299.5876 -17.2264 -24.9497 502246.5446 -8.4972 -8.8187
ENERGY: 12000 1599.7902 2332.0797 3183.8429 0.0000 -176164.5751 20448.8680 517.9718 0.0000 30962.2753 -117119.7471 301.0371 -148082.0224 -117082.0235 299.3577 -55.1204 9.4294 500514.4218 -7.8102 -7.5614
ENERGY: 13000 1591.7096 2325.7591 3147.2624 0.0000 -175584.0663 20056.6966 515.1138 0.0000 30742.6636 -117204.8612 298.9018 -147947.5248 -117161.1841 299.6724 -116.0753 -23.1706 498892.8093 -8.7137 -8.4049
ENERGY: 14000 1644.3670 2385.4353 3195.1906 0.0000 -175636.1350 20131.3097 507.0660 0.0000 30791.7954 -116980.9710 299.3795 -147772.7664 -116937.5335 298.8071 -0.0504 17.6369 498797.0067 -0.0214 -0.1672
ENERGY: 15000 1601.4681 2348.5754 3162.4941 0.0000 -175549.0061 20052.4663 517.4656 0.0000 30810.4495 -117056.0871 299.5609 -147866.5366 -117020.9839 298.8614 -32.7770 -39.9333 499015.1179 1.0150 1.5849
TCL: Setting parameter constraintScaling to 1.25
TCL: Running for 5000 steps
ETITLE: TS BOND ANGLE DIHED IMPRP ELECT VDW BOUNDARY MISC KINETIC TOTAL TEMP POTENTIAL TOTAL3 TEMPAVG PRESSURE GPRESSURE VOLUME PRESSAVG GPRESSAVG
ENERGY: 15000 1601.4681 2348.5754 3162.4941 0.0000 -175549.0061 20052.4663 258.7328 0.0000 30808.4031 -117316.8663 299.5410 -148125.2694 -117273.9024 299.5410 -55.7922 -73.8093 499015.1179 -55.7922 -73.8093
ENERGY: 16000 1651.2702 2336.4044 3189.3843 0.0000 -175538.2082 20021.4809 399.6863 0.0000 30838.8170 -117101.1652 299.8367 -147939.9822 -117053.9450 299.6811 -98.0960 -0.1063 499576.6357 6.1760 5.8562
ENERGY: 17000 1627.1497 2360.2427 3180.9111 0.0000 -175865.0541 20327.7093 386.3519 0.0000 30895.7748 -117086.9146 300.3905 -147982.6893 -117050.5589 299.5719 -51.7255 -3.5377 500048.8882 2.0932 2.2167
ENERGY: 18000 1614.7052 2372.1683 3174.0025 0.0000 -175566.4064 20022.8738 398.5045 0.0000 31027.4663 -116956.6859 301.6709 -147984.1522 -116907.3348 300.5916 -46.2030 -30.1009 500987.7209 -2.2950 -2.0551
ENERGY: 19000 1575.9004 2391.6535 3181.7925 0.0000 -175945.2080 20114.0464 424.5242 0.0000 31124.3638 -117132.9272 302.6130 -148257.2910 -117070.7637 300.3073 -163.4797 -32.0348 499217.0040 -5.2953 -5.3800
ENERGY: 20000 1587.8067 2365.0107 3181.5326 0.0000 -175532.5297 19916.1465 398.3339 0.0000 30556.3645 -117527.3348 297.0905 -148083.6993 -117479.5883 299.8316 -71.0042 28.3272 498532.4229 0.3826 0.6957
TCL: Setting parameter constraintScaling to 0.625
TCL: Running for 5000 steps
ETITLE: TS BOND ANGLE DIHED IMPRP ELECT VDW BOUNDARY MISC KINETIC TOTAL TEMP POTENTIAL TOTAL3 TEMPAVG PRESSURE GPRESSURE VOLUME PRESSAVG GPRESSAVG
ENERGY: 20000 1587.8067 2365.0107 3181.5326 0.0000 -175532.5297 19916.1465 199.1669 0.0000 30554.3164 -117728.5498 297.0706 -148282.8663 -117686.3430 297.0706 -134.1656 -45.2073 498532.4229 -134.1656 -45.2073
ENERGY: 21000 1622.9927 2398.7570 3182.4518 0.0000 -175840.9573 20112.3063 323.1456 0.0000 30922.3893 -117278.9148 300.6493 -148201.3040 -117235.8067 299.1951 -97.6588 -70.7073 497996.8161 -2.2290 -3.1870
ENERGY: 22000 1630.9882 2356.2991 3171.8806 0.0000 -176459.6547 20282.3994 299.9193 0.0000 30854.9549 -117863.2133 299.9936 -148718.1683 -117811.7708 297.9534 34.8342 39.5626 499594.6429 2.8108 2.9998
ENERGY: 23000 1591.5741 2391.3947 3205.3552 0.0000 -176057.2942 20086.4717 316.7363 0.0000 30735.3794 -117730.3828 298.8310 -148465.7622 -117686.5024 299.2261 -38.7039 64.5252 497790.2122 -9.0400 -9.6257
ENERGY: 24000 1613.4472 2366.9457 3215.6220 0.0000 -175743.0227 19985.1212 330.6632 0.0000 30605.6123 -117625.6110 297.5693 -148231.2233 -117586.0989 298.6874 2.1090 31.5579 497274.2483 -3.6518 -4.2240
ENERGY: 25000 1630.3544 2382.4633 3218.9896 0.0000 -176214.2593 20218.7808 318.3016 0.0000 30710.9353 -117734.4343 298.5934 -148445.3697 -117685.5835 298.1209 37.0364 153.2659 497993.9751 6.5530 7.2158
TCL: Setting parameter constraintScaling to 0.3125
TCL: Running for 5000 steps
ETITLE: TS BOND ANGLE DIHED IMPRP ELECT VDW BOUNDARY MISC KINETIC TOTAL TEMP POTENTIAL TOTAL3 TEMPAVG PRESSURE GPRESSURE VOLUME PRESSAVG GPRESSAVG
ENERGY: 25000 1630.3544 2382.4633 3218.9896 0.0000 -176214.2593 20218.7808 159.1508 0.0000 30708.9080 -117895.6125 298.5736 -148604.5205 -117850.7143 298.5736 -5.2736 101.5477 497993.9751 -5.2736 101.5477
ENERGY: 26000 1690.1313 2424.0701 3200.2470 0.0000 -176099.2319 20117.5064 248.1523 0.0000 30706.7022 -117712.4226 298.5522 -148419.1248 -117670.3767 298.4862 13.4060 82.4945 498257.9277 2.0025 1.0204
ENERGY: 27000 1642.7849 2369.3862 3213.9287 0.0000 -175919.3897 19906.1975 237.4502 0.0000 30907.2509 -117642.3912 300.5021 -148549.6421 -117597.6263 299.1025 -32.0922 11.5241 497015.1801 0.8957 1.0482
ENERGY: 28000 1625.7180 2413.9699 3210.8124 0.0000 -175532.5202 19799.6104 236.3669 0.0000 30739.8312 -117506.2113 298.8743 -148246.0426 -117466.0697 299.6113 -164.8495 -57.8319 498356.3650 13.7185 13.5208
ENERGY: 29000 1604.7424 2360.0423 3183.0124 0.0000 -176067.8743 20149.2633 248.6174 0.0000 31027.5814 -117494.6152 301.6720 -148522.1966 -117451.3222 300.4137 4.7900 68.5872 496214.4174 -3.2696 -3.3808
ENERGY: 30000 1658.5909 2334.5220 3196.5174 0.0000 -175550.8263 19860.3241 259.3126 0.0000 30823.1026 -117418.4567 299.6839 -148241.5594 -117369.4705 299.3709 -108.9957 -154.8268 496468.1468 -0.8989 -0.9119
TCL: Setting parameter constraintScaling to 0.15625
TCL: Running for 5000 steps
ETITLE: TS BOND ANGLE DIHED IMPRP ELECT VDW BOUNDARY MISC KINETIC TOTAL TEMP POTENTIAL TOTAL3 TEMPAVG PRESSURE GPRESSURE VOLUME PRESSAVG GPRESSAVG
ENERGY: 30000 1658.5909 2334.5220 3196.5174 0.0000 -175550.8263 19860.3241 129.6563 0.0000 30821.0704 -117550.1452 299.6642 -148371.2157 -117509.2775 299.6642 -147.2928 -193.8778 496468.1468 -147.2928 -193.8778
ENERGY: 31000 1639.6934 2359.0837 3208.6448 0.0000 -175778.0394 19996.7905 194.2030 0.0000 30847.7931 -117531.8308 299.9240 -148379.6238 -117488.3664 300.2683 -53.4294 -0.9310 497248.2015 13.5486 13.3161
ENERGY: 32000 1671.4155 2375.2119 3183.6568 0.0000 -175994.3076 20006.5238 192.4940 0.0000 30844.7489 -117720.2566 299.8944 -148565.0055 -117666.5978 299.4917 -83.8934 -61.5191 496077.4274 -3.8335 -3.9068
ENERGY: 33000 1613.9224 2446.2813 3226.2766 0.0000 -175803.0528 20006.6234 204.7654 0.0000 30769.4915 -117535.6922 299.1627 -148305.1837 -117507.1188 299.9783 -0.0225 1.3775 496747.9016 -3.8848 -3.6357
ENERGY: 34000 1673.3218 2376.5842 3193.0390 0.0000 -175452.4404 19978.9064 201.4059 0.0000 30763.1344 -117266.0486 299.1009 -148029.1830 -117220.8497 300.2112 -2.8268 -43.6581 498041.5597 7.0895 7.7337
ENERGY: 35000 1650.2371 2398.6928 3239.5280 0.0000 -176566.1289 20298.3273 226.4891 0.0000 30854.8408 -117898.0138 299.9925 -148752.8546 -117837.8100 299.3967 -6.6982 -23.5604 498070.9318 8.5805 8.7683
TCL: Setting parameter constraintScaling to 0.078125
TCL: Running for 5000 steps
ETITLE: TS BOND ANGLE DIHED IMPRP ELECT VDW BOUNDARY MISC KINETIC TOTAL TEMP POTENTIAL TOTAL3 TEMPAVG PRESSURE GPRESSURE VOLUME PRESSAVG GPRESSAVG
ENERGY: 35000 1650.2371 2398.6928 3239.5280 0.0000 -176566.1289 20298.3273 113.2446 0.0000 30852.7826 -118013.3166 299.9725 -148866.0991 -117968.4038 299.9725 -22.7942 -30.0583 498070.9318 -22.7942 -30.0583
ENERGY: 36000 1716.6554 2434.8292 3197.5348 0.0000 -176237.7123 20249.6632 142.8150 0.0000 30919.8031 -117576.4115 300.6241 -148496.2147 -117533.4026 299.4867 -71.5408 5.0532 496601.3730 -10.1867 -10.1638
ENERGY: 37000 1609.1419 2394.9453 3206.0686 0.0000 -175754.5892 20031.2732 140.1891 0.0000 30921.9110 -117451.0600 300.6446 -148372.9710 -117408.7910 300.6199 38.1007 -41.3396 496862.6596 -3.0754 -2.8405
ENERGY: 38000 1561.9682 2456.4343 3244.1302 0.0000 -176026.4595 20076.7444 160.8390 0.0000 30695.4260 -117830.9174 298.4426 -148526.3434 -117774.9364 299.0234 -70.3479 -6.3846 497631.1860 13.9237 14.0523
ENERGY: 39000 1624.3611 2384.1600 3210.8433 0.0000 -175591.9626 19946.5090 160.7357 0.0000 30721.6662 -117543.6873 298.6977 -148265.3535 -117498.0777 298.9680 -168.2021 -48.3959 497509.4436 -4.3946 -4.0003
ENERGY: 40000 1619.7610 2363.0622 3218.7287 0.0000 -176034.8682 20026.3285 161.4708 0.0000 30863.7303 -117781.7867 300.0789 -148645.5170 -117727.4128 299.1566 -132.4303 -66.4245 497880.8990 -7.9284 -8.0133
TCL: Setting parameter constraintScaling to 0.0390625
TCL: Running for 5000 steps
ETITLE: TS BOND ANGLE DIHED IMPRP ELECT VDW BOUNDARY MISC KINETIC TOTAL TEMP POTENTIAL TOTAL3 TEMPAVG PRESSURE GPRESSURE VOLUME PRESSAVG GPRESSAVG
ENERGY: 40000 1619.7610 2363.0622 3218.7287 0.0000 -176034.8682 20026.3285 80.7354 0.0000 30861.6855 -117864.5669 300.0591 -148726.2524 -117820.7232 300.0591 -155.9826 -92.5019 497880.8990 -155.9826 -92.5019
ENERGY: 41000 1629.0297 2407.3123 3176.1601 0.0000 -175708.0107 19880.4572 112.3215 0.0000 31037.4527 -117465.2772 301.7680 -148502.7299 -117409.1728 299.0230 -107.5744 -114.6357 496813.9944 -1.7232 -1.6108
ENERGY: 42000 1688.6383 2427.5487 3213.9827 0.0000 -175868.2652 20160.8530 115.5235 0.0000 30829.7045 -117432.0145 299.7481 -148261.7190 -117381.7470 300.9343 13.5378 -43.4318 497274.9627 8.0530 7.3987
ENERGY: 43000 1658.8310 2437.0262 3228.4027 0.0000 -175887.8420 20055.5363 128.5395 0.0000 30719.9855 -117659.5207 298.6813 -148379.5063 -117616.2504 299.5169 -149.4460 -28.2828 498059.8868 2.6956 2.6187
ENERGY: 44000 1653.9356 2399.5850 3205.7538 0.0000 -175924.7872 20077.4173 137.6084 0.0000 30979.3514 -117471.1356 301.2031 -148450.4870 -117423.6242 299.8892 83.0894 49.9734 497729.6438 0.1079 0.4668
ENERGY: 45000 1643.5291 2423.5253 3192.7115 0.0000 -175390.9810 19938.2066 139.5370 0.0000 30688.5112 -117364.9602 298.3753 -148053.4714 -117322.1341 300.0558 108.2924 0.2290 497393.8429 8.4715 8.3986
TCL: Setting parameter constraintScaling to 0.01953125
TCL: Running for 5000 steps
ETITLE: TS BOND ANGLE DIHED IMPRP ELECT VDW BOUNDARY MISC KINETIC TOTAL TEMP POTENTIAL TOTAL3 TEMPAVG PRESSURE GPRESSURE VOLUME PRESSAVG GPRESSAVG
ENERGY: 45000 1643.5291 2423.5253 3192.7115 0.0000 -175390.9810 19938.2066 69.7685 0.0000 30686.4484 -117436.7915 298.3553 -148123.2399 -117394.9637 298.3553 106.2993 -2.3982 497393.8429 106.2993 -2.3982
ENERGY: 46000 1630.8799 2445.7610 3243.5756 0.0000 -175999.0371 20150.8928 75.9191 0.0000 30633.3768 -117818.6319 297.8393 -148452.0087 -117766.4179 299.6060 -70.5194 -27.8373 496023.9286 3.4741 2.9719
ENERGY: 47000 1585.2623 2456.2750 3212.0362 0.0000 -176088.3653 20104.8309 86.6252 0.0000 30806.8140 -117836.5217 299.5256 -148643.3357 -117790.7545 299.8394 20.5537 65.0721 496520.2961 -6.2016 -6.0325
ENERGY: 48000 1662.5469 2404.1380 3174.1307 0.0000 -176177.4506 20180.3617 87.7816 0.0000 30788.9927 -117879.4990 299.3523 -148668.4917 -117833.6685 299.6522 -88.3547 -118.5888 497207.4273 2.6875 2.5647
ENERGY: 49000 1644.2488 2356.2485 3213.6350 0.0000 -176105.6577 20007.5220 84.5072 0.0000 30762.0095 -118037.4868 299.0899 -148799.4962 -117997.5975 298.1302 55.5419 27.4648 498030.6122 7.3628 7.1598
ENERGY: 50000 1670.9133 2391.2558 3195.4882 0.0000 -175968.7020 20075.4197 89.9917 0.0000 30696.0463 -117849.5869 298.4486 -148545.6333 -117811.0724 298.8769 -57.3306 0.1747 496586.8848 -8.3060 -8.5469
TCL: Setting parameter constraintScaling to 0
TCL: Running for 5000 steps
ETITLE: TS BOND ANGLE DIHED IMPRP ELECT VDW BOUNDARY MISC KINETIC TOTAL TEMP POTENTIAL TOTAL3 TEMPAVG PRESSURE GPRESSURE VOLUME PRESSAVG GPRESSAVG
ENERGY: 50000 1670.9133 2391.2558 3195.4882 0.0000 -175968.7020 20075.4197 0.0000 0.0000 30693.9876 -117941.6374 298.4286 -148635.6250 -117902.4886 298.4286 -67.5686 -5.1523 496586.8848 -67.5686 -5.1523
ENERGY: 51000 1639.8315 2431.8933 3184.0383 0.0000 -175873.5617 19784.6910 0.0000 0.0000 30849.3108 -117983.7968 299.9387 -148833.1076 -117942.4984 299.3844 12.1423 -30.1371 495876.1985 0.4652 -0.1832
ENERGY: 52000 1653.1349 2428.0275 3199.2861 0.0000 -176075.4766 20038.7199 0.0000 0.0000 30925.2869 -117831.0212 300.6774 -148756.3081 -117785.3215 300.2324 51.3221 58.6925 495634.1883 -2.6997 -2.9598
ENERGY: 53000 1648.4454 2427.9209 3259.7917 0.0000 -175959.8518 20072.7596 0.0000 0.0000 30872.0303 -117678.9039 300.1596 -148550.9343 -117627.6645 299.9414 24.3395 39.5271 496678.2260 2.4578 2.4436
ENERGY: 54000 1615.9225 2339.5416 3213.6012 0.0000 -175870.4247 20164.4852 0.0000 0.0000 30710.2028 -117826.6715 298.5862 -148536.8743 -117781.1544 299.3169 55.0434 61.4204 497509.5166 -0.3322 -0.1608
ENERGY: 55000 1652.3514 2435.6404 3270.8234 0.0000 -175671.3855 20139.6486 0.0000 0.0000 30909.3116 -117263.6101 300.5221 -148172.9217 -117220.9776 300.4377 -8.7477 -23.0635 497943.8663 -2.6776 -2.5298
