Info: SIMULATION PARAMETERS:
Info: TIMESTEP               2
Info: NUMBER OF STEPS        0
Info: STEPS PER CYCLE        10
Info: PERIODIC CELL BASIS 1  72.449 0 0
Info: PERIODIC CELL BASIS 2  0 93.247 0
Info: PERIODIC CELL BASIS 3  0 0 79.185
Info: PERIODIC CELL CENTER   -0.248 -0.156 -0.047
Info: WRAPPING WATERS AROUND PERIODIC BOUNDARIES ON OUTPUT.
Info: WRAPPING ALL CLUSTERS AROUND PERIODIC BOUNDARIES ON OUTPUT.
Info: FIRST LDB TIMESTEP     50
Info: LAST LDB TIMESTEP     -1
Info: HOM BACKGROUND SCALING 1
Info: PME BACKGROUND SCALING 1
Info: MIN ATOMS PER PATCH    40
Info: INITIAL TEMPERATURE    0
Info: CENTER OF MASS MOVING INITIALLY? NO
Info: DIELECTRIC             1
Info: EXCLUDE                SCALED ONE-FOUR
Info: 1-4 ELECTROSTATICS SCALED BY 0.833333
Info: MODIFIED 1-4 VDW PARAMETERS WILL BE USED
Info: NO DCD TRAJECTORY OUTPUT
Info: NO EXTENDED SYSTEM TRAJECTORY OUTPUT
Info: NO VELOCITY DCD OUTPUT
Info: NO FORCE DCD OUTPUT
Info: OUTPUT FILENAME        ../replicas/rep70/equilibration/eq0
Info: NO RESTART FILE
Info: SWITCHING ACTIVE
Info: SWITCHING ON           10
Info: SWITCHING OFF          12
Info: PAIRLIST DISTANCE      13.5
Info: PAIRLIST SHRINK RATE   0.01
Info: PAIRLIST GROW RATE     0.01
Info: PAIRLIST TRIGGER       0.3
Info: PAIRLISTS PER CYCLE    2
Info: PAIRLISTS ENABLED
Info: MARGIN                 0
Info: HYDROGEN GROUP CUTOFF  2.5
Info: PATCH DIMENSION        16
Info: ENERGY OUTPUT STEPS    500
Info: CROSSTERM ENERGY INCLUDED IN DIHEDRAL
Info: TIMING OUTPUT STEPS    5000
Info: PRESSURE OUTPUT STEPS  500
Info: HARMONIC CONSTRAINTS ACTIVE
Info: HARMONIC CONS EXP      2
Info: HARMONIC CONS SCALING  10
Info: CONJUGATE GRADIENT MINIMIZATION ACTIVE
Info: LINE MINIMIZATION GOAL = 0.001
Info: BABY STEP SIZE = 0.01
Info: TINY STEP SIZE = 1e-06
Info: PARTICLE MESH EWALD (PME) ACTIVE
Info: PME TOLERANCE               1e-06
Info: PME EWALD COEFFICIENT       0.257952
Info: PME INTERPOLATION ORDER     4
Info: PME GRID DIMENSIONS         80 96 80
Info: PME MAXIMUM GRID SPACING    1
Info: FULL ELECTROSTATIC EVALUATION FREQUENCY      2
Info: USING VERLET I (r-RESPA) MTS SCHEME.
Info: C1 SPLITTING OF LONG RANGE ELECTROSTATICS
Info: PLACING ATOMS IN PATCHES BY HYDROGEN GROUPS
Info: RIGID BONDS TO HYDROGEN : ALL
Info:         ERROR TOLERANCE : 1e-05
Info:          MAX ITERATIONS : 100
Info: RIGID WATER USING SETTLE ALGORITHM
Info: RANDOM NUMBER SEED     1503700619
Info: USE HYDROGEN BONDS?    NO
Info: Using AMBER format force field!
Info: AMBER PARM FILE        ../build/complex.top
Info: COORDINATE PDB         ../build/complex.pdb
Info: Exclusions in PARM file will be ignored!
Info: SCNB (VDW SCALING)     2
Info: USING ARITHMETIC MEAN TO COMBINE L-J SIGMA PARAMETERS
Info: SUMMARY OF PARAMETERS:
Info: 71 BONDS
Info: 145 ANGLES
Info: 76 DIHEDRAL
Info: 0 IMPROPER
Info: 0 CROSSTERM
Info: 0 VDW
Info: 190 VDW_PAIRS
Info: 0 NBTHOLE_PAIRS
Info: STRUCTURE SUMMARY:
Info: 49394 ATOMS
Info: 49448 BONDS
Info: 8698 ANGLES
Info: 18780 DIHEDRALS
Info: 0 IMPROPERS
Info: 0 CROSSTERMS
Info: 0 EXCLUSIONS
Info: 2336 CONSTRAINTS
Info: 47058 RIGID BONDS
Info: 101124 DEGREES OF FREEDOM
Info: 17225 HYDROGEN GROUPS
Info: 4 ATOMS IN LARGEST HYDROGEN GROUP
Info: 17225 MIGRATION GROUPS
Info: 4 ATOMS IN LARGEST MIGRATION GROUP
Info: TOTAL MASS = 301478 amu
Info: TOTAL CHARGE = 1.00115e-05 e
Info: MASS DENSITY = 0.935846 g/cm^3
Info: ATOM DENSITY = 0.0923345 atoms/A^3
Info: ADDED 70656 IMPLICIT EXCLUSIONS
Info: NONBONDED TABLE R-SQUARED SPACING: 0.0625
Info: NONBONDED TABLE SIZE: 769 POINTS
Info: REMOVING COM VELOCITY 0 0 0
TCL: Minimizing for 100 steps
ETITLE: TS BOND ANGLE DIHED IMPRP ELECT VDW BOUNDARY MISC KINETIC TOTAL TEMP POTENTIAL TOTAL3 TEMPAVG PRESSURE GPRESSURE VOLUME PRESSAVG GPRESSAVG
ENERGY: 0 155.4176 1012.2698 2855.7272 0.0000 -154496.7912 207729.2052 0.0468 0.0000 0.0000 57255.8754 0.0000 57255.8754 57255.8754 0.0000 116350.2532 86546.1670 534946.2959 116350.2532 86546.1670
ENERGY: 20 304.7571 935.7914 2893.4663 0.0000 -158672.9420 17936.6587 143.9455 0.0000 0.0000 -136458.3230 0.0000 -136458.3230 -136458.3230 0.0000 16523.9379 -239.4568 534946.2959 16523.9379 -239.4568
ENERGY: 40 198.7477 799.5733 2896.9273 0.0000 -162811.4517 16417.9541 221.3031 0.0000 0.0000 -142276.9463 0.0000 -142276.9463 -142276.9463 0.0000 15011.2706 -2135.4694 534946.2959 15011.2706 -2135.4694
ENERGY: 60 130.5280 715.3439 2898.2166 0.0000 -167496.1586 15446.7536 315.2797 0.0000 0.0000 -147990.0367 0.0000 -147990.0367 -147990.0367 0.0000 13793.8834 -3799.3991 534946.2959 13793.8834 -3799.3991
ENERGY: 80 431.2687 765.6299 2904.3789 0.0000 -169937.5293 15121.1524 372.0123 0.0000 0.0000 -150343.0872 0.0000 -150343.0872 -150343.0872 0.0000 13270.3308 -4577.2439 534946.2959 13270.3308 -4577.2439
ENERGY: 100 119.3841 710.0599 2905.2593 0.0000 -171259.7131 14991.7867 387.3615 0.0000 0.0000 -152145.8617 0.0000 -152145.8617 -152145.8617 0.0000 13056.2653 -4908.1721 534946.2959 13056.2653 -4908.1721
TCL: Setting parameter constraintScaling to 5.0
TCL: Minimizing for 100 steps
ETITLE: TS BOND ANGLE DIHED IMPRP ELECT VDW BOUNDARY MISC KINETIC TOTAL TEMP POTENTIAL TOTAL3 TEMPAVG PRESSURE GPRESSURE VOLUME PRESSAVG GPRESSAVG
ENERGY: 100 119.3841 710.0599 2905.2593 0.0000 -171259.7131 14991.7867 193.6807 0.0000 0.0000 -152339.5424 0.0000 -152339.5424 -152339.5424 0.0000 13672.7715 -23021.8190 534946.2959 13672.7715 -23021.8190
ENERGY: 120 108.8821 687.5840 2912.9266 0.0000 -172865.9005 14798.2698 281.1924 0.0000 0.0000 -154077.0455 0.0000 -154077.0455 -154077.0455 0.0000 13218.2517 -4906.0217 534946.2959 13218.2517 -4906.0217
ENERGY: 140 309.4214 708.8683 2913.8023 0.0000 -174236.6640 14731.4821 326.6389 0.0000 0.0000 -155246.4510 0.0000 -155246.4510 -155246.4510 0.0000 12971.5276 -5303.2412 534946.2959 12971.5276 -5303.2412
ENERGY: 160 265.2296 683.1151 2923.1735 0.0000 -176275.2606 14757.3324 382.8858 0.0000 0.0000 -157263.5241 0.0000 -157263.5241 -157263.5241 0.0000 12740.9686 -5743.0942 534946.2959 12740.9686 -5743.0942
ENERGY: 180 268.8947 744.0948 2928.5658 0.0000 -178995.2708 15023.4911 473.2946 0.0000 0.0000 -159556.9299 0.0000 -159556.9299 -159556.9299 0.0000 12521.6092 -6223.9782 534946.2959 12521.6092 -6223.9782
ENERGY: 200 238.8968 694.0925 2941.3622 0.0000 -181556.2387 15587.0445 546.2652 0.0000 0.0000 -161548.5775 0.0000 -161548.5775 -161548.5775 0.0000 12582.6440 -6420.9683 534946.2959 12582.6440 -6420.9683
TCL: Setting parameter constraintScaling to 2.5
TCL: Minimizing for 100 steps
ETITLE: TS BOND ANGLE DIHED IMPRP ELECT VDW BOUNDARY MISC KINETIC TOTAL TEMP POTENTIAL TOTAL3 TEMPAVG PRESSURE GPRESSURE VOLUME PRESSAVG GPRESSAVG
ENERGY: 200 238.8968 694.0925 2941.3622 0.0000 -181556.2387 15587.0445 273.1326 0.0000 0.0000 -161821.7101 0.0000 -161821.7101 -161821.7101 0.0000 13229.5511 -25651.7717 534946.2959 13229.5511 -25651.7717
ENERGY: 220 246.7060 677.8142 2933.0084 0.0000 -182076.9797 15471.8018 337.7231 0.0000 0.0000 -162409.9262 0.0000 -162409.9262 -162409.9262 0.0000 12971.3289 -6087.0761 534946.2959 12971.3289 -6087.0761
ENERGY: 240 115.5996 674.5091 2928.4528 0.0000 -182573.2414 15511.0066 345.0359 0.0000 0.0000 -162998.6374 0.0000 -162998.6374 -162998.6374 0.0000 13036.5945 -6113.5617 534946.2959 13036.5945 -6113.5617
ENERGY: 260 144.9443 676.5084 2920.8572 0.0000 -184117.4114 15842.2222 391.7651 0.0000 0.0000 -164141.1142 0.0000 -164141.1142 -164141.1142 0.0000 13045.2508 -6253.9794 534946.2959 13045.2508 -6253.9794
ENERGY: 280 172.1578 701.3621 2917.6173 0.0000 -185430.8747 16231.9859 455.1606 0.0000 0.0000 -164952.5910 0.0000 -164952.5910 -164952.5910 0.0000 13144.2742 -6335.2074 534946.2959 13144.2742 -6335.2074
ENERGY: 300 126.6627 639.5785 2916.2556 0.0000 -186097.5350 16447.0423 481.4110 0.0000 0.0000 -165486.5849 0.0000 -165486.5849 -165486.5849 0.0000 13208.3069 -6338.8989 534946.2959 13208.3069 -6338.8989
TCL: Setting parameter constraintScaling to 1.25
TCL: Minimizing for 100 steps
ETITLE: TS BOND ANGLE DIHED IMPRP ELECT VDW BOUNDARY MISC KINETIC TOTAL TEMP POTENTIAL TOTAL3 TEMPAVG PRESSURE GPRESSURE VOLUME PRESSAVG GPRESSAVG
ENERGY: 300 126.6627 639.5785 2916.2556 0.0000 -186097.5350 16447.0423 240.7055 0.0000 0.0000 -165727.2905 0.0000 -165727.2905 -165727.2905 0.0000 13656.6816 -26349.2004 534946.2959 13656.6816 -26349.2004
ENERGY: 320 132.0727 624.5896 2911.1450 0.0000 -186668.6280 16580.9008 272.7843 0.0000 0.0000 -166147.1356 0.0000 -166147.1356 -166147.1356 0.0000 13630.1115 -5970.4003 534946.2959 13630.1115 -5970.4003
ENERGY: 340 149.9978 624.4218 2910.5896 0.0000 -187378.8928 16811.9929 295.9374 0.0000 0.0000 -166585.9534 0.0000 -166585.9534 -166585.9534 0.0000 13650.0577 -6006.1079 534946.2959 13650.0577 -6006.1079
ENERGY: 360 179.0805 676.3293 2908.3935 0.0000 -188872.1662 17317.9790 356.9322 0.0000 0.0000 -167433.4517 0.0000 -167433.4517 -167433.4517 0.0000 13858.9434 -6004.3252 534946.2959 13858.9434 -6004.3252
ENERGY: 380 151.8705 645.5735 2903.4482 0.0000 -190150.2450 17817.8244 387.2846 0.0000 0.0000 -168244.2440 0.0000 -168244.2440 -168244.2440 0.0000 14003.1642 -5976.2161 534946.2959 14003.1642 -5976.2161
ENERGY: 400 138.5590 633.5191 2899.7912 0.0000 -190446.2288 17917.4857 393.7992 0.0000 0.0000 -168463.0745 0.0000 -168463.0745 -168463.0745 0.0000 14118.7477 -5919.6083 534946.2959 14118.7477 -5919.6083
TCL: Setting parameter constraintScaling to 0.625
TCL: Minimizing for 100 steps
ETITLE: TS BOND ANGLE DIHED IMPRP ELECT VDW BOUNDARY MISC KINETIC TOTAL TEMP POTENTIAL TOTAL3 TEMPAVG PRESSURE GPRESSURE VOLUME PRESSAVG GPRESSAVG
ENERGY: 400 138.5590 633.5191 2899.7912 0.0000 -190446.2288 17917.4857 196.8996 0.0000 0.0000 -168659.9741 0.0000 -168659.9741 -168659.9741 0.0000 14416.5001 -26605.0277 534946.2959 14416.5001 -26605.0277
ENERGY: 420 148.8601 627.0499 2895.3982 0.0000 -190854.8249 18012.6689 218.6318 0.0000 0.0000 -168952.2161 0.0000 -168952.2161 -168952.2161 0.0000 14348.1529 -5717.8191 534946.2959 14348.1529 -5717.8191
ENERGY: 440 199.4645 639.5273 2901.4426 0.0000 -191456.3038 18204.6988 238.0412 0.0000 0.0000 -169273.1293 0.0000 -169273.1293 -169273.1293 0.0000 14326.0332 -5776.4168 534946.2959 14326.0332 -5776.4168
ENERGY: 460 175.4710 655.6648 2891.0812 0.0000 -192089.5312 18420.6788 256.8876 0.0000 0.0000 -169689.7479 0.0000 -169689.7479 -169689.7479 0.0000 14509.1332 -5716.5331 534946.2959 14509.1332 -5716.5331
ENERGY: 480 146.2921 645.9841 2882.6659 0.0000 -193330.8584 18898.4609 292.0832 0.0000 0.0000 -170465.3721 0.0000 -170465.3721 -170465.3721 0.0000 14655.8134 -5676.5693 534946.2959 14655.8134 -5676.5693
ENERGY: 500 154.9829 662.1163 2884.8727 0.0000 -193590.3223 18996.8509 297.0335 0.0000 0.0000 -170594.4660 0.0000 -170594.4660 -170594.4660 0.0000 14705.5022 -5666.6376 534946.2959 14705.5022 -5666.6376
TCL: Setting parameter constraintScaling to 0.3125
TCL: Minimizing for 100 steps
ETITLE: TS BOND ANGLE DIHED IMPRP ELECT VDW BOUNDARY MISC KINETIC TOTAL TEMP POTENTIAL TOTAL3 TEMPAVG PRESSURE GPRESSURE VOLUME PRESSAVG GPRESSAVG
ENERGY: 500 154.9829 662.1163 2884.8727 0.0000 -193590.3223 18996.8509 148.5168 0.0000 0.0000 -170742.9827 0.0000 -170742.9827 -170742.9827 0.0000 14897.8589 -26862.1153 534946.2959 14897.8589 -26862.1153
ENERGY: 520 249.9240 684.2623 2875.9079 0.0000 -194342.4847 19263.1375 171.0908 0.0000 0.0000 -171098.1623 0.0000 -171098.1623 -171098.1623 0.0000 14974.7063 -5477.1070 534946.2959 14974.7063 -5477.1070
ENERGY: 540 435.4669 733.1058 2886.3817 0.0000 -194892.3011 19468.6880 180.2806 0.0000 0.0000 -171188.3780 0.0000 -171188.3780 -171188.3780 0.0000 15029.2983 -5478.0887 534946.2959 15029.2983 -5478.0887
ENERGY: 560 207.3290 687.6580 2872.0674 0.0000 -195289.1210 19613.6227 188.4881 0.0000 0.0000 -171719.9559 0.0000 -171719.9559 -171719.9559 0.0000 15141.8407 -5430.6631 534946.2959 15141.8407 -5430.6631
ENERGY: 580 193.1097 701.5473 2870.5311 0.0000 -195712.0767 19774.1572 200.9701 0.0000 0.0000 -171971.7614 0.0000 -171971.7614 -171971.7614 0.0000 15166.6599 -5429.4803 534946.2959 15166.6599 -5429.4803
ENERGY: 600 176.7886 730.8037 2876.7885 0.0000 -197312.3291 20412.3717 240.9080 0.0000 0.0000 -172874.6685 0.0000 -172874.6685 -172874.6685 0.0000 15437.9080 -5366.2889 534946.2959 15437.9080 -5366.2889
TCL: Setting parameter constraintScaling to 0.15625
TCL: Minimizing for 100 steps
ETITLE: TS BOND ANGLE DIHED IMPRP ELECT VDW BOUNDARY MISC KINETIC TOTAL TEMP POTENTIAL TOTAL3 TEMPAVG PRESSURE GPRESSURE VOLUME PRESSAVG GPRESSAVG
ENERGY: 600 176.7886 730.8037 2876.7885 0.0000 -197312.3291 20412.3717 120.4540 0.0000 0.0000 -172995.1225 0.0000 -172995.1225 -172995.1225 0.0000 15565.3304 -27068.0007 534946.2959 15565.3304 -27068.0007
ENERGY: 620 157.1276 651.3773 2860.3397 0.0000 -197489.3289 20484.2013 116.5611 0.0000 0.0000 -173219.7219 0.0000 -173219.7219 -173219.7219 0.0000 15680.4781 -5147.2402 534946.2959 15680.4781 -5147.2402
ENERGY: 640 192.3460 697.7312 2882.3019 0.0000 -198224.6003 20767.7464 123.8957 0.0000 0.0000 -173560.5792 0.0000 -173560.5792 -173560.5792 0.0000 15823.5085 -5083.7668 534946.2959 15823.5085 -5083.7668
ENERGY: 660 167.1833 650.0598 2857.3231 0.0000 -198877.6321 20995.2598 137.8934 0.0000 0.0000 -174069.9128 0.0000 -174069.9128 -174069.9128 0.0000 15869.7967 -5097.2306 534946.2959 15869.7967 -5097.2306
ENERGY: 680 176.2769 675.4479 2848.1277 0.0000 -199166.5511 21086.7681 146.8973 0.0000 0.0000 -174233.0332 0.0000 -174233.0332 -174233.0332 0.0000 15891.1772 -5127.7349 534946.2959 15891.1772 -5127.7349
ENERGY: 700 173.7805 696.4327 2856.2216 0.0000 -200118.4910 21466.6804 156.9295 0.0000 0.0000 -174768.4462 0.0000 -174768.4462 -174768.4462 0.0000 16090.4093 -5039.5658 534946.2959 16090.4093 -5039.5658
TCL: Setting parameter constraintScaling to 0.078125
TCL: Minimizing for 100 steps
ETITLE: TS BOND ANGLE DIHED IMPRP ELECT VDW BOUNDARY MISC KINETIC TOTAL TEMP POTENTIAL TOTAL3 TEMPAVG PRESSURE GPRESSURE VOLUME PRESSAVG GPRESSAVG
ENERGY: 700 173.7805 696.4327 2856.2216 0.0000 -200118.4910 21466.6804 78.4648 0.0000 0.0000 -174846.9110 0.0000 -174846.9110 -174846.9110 0.0000 16165.6306 -27140.9833 534946.2959 16165.6306 -27140.9833
ENERGY: 720 222.1062 699.4233 2842.7629 0.0000 -200365.7481 21545.9394 79.2807 0.0000 0.0000 -174976.2357 0.0000 -174976.2357 -174976.2357 0.0000 16196.7759 -4973.3068 534946.2959 16196.7759 -4973.3068
ENERGY: 740 158.9907 671.6390 2847.0616 0.0000 -200795.2780 21713.7158 83.6887 0.0000 0.0000 -175320.1823 0.0000 -175320.1823 -175320.1823 0.0000 16303.7533 -4910.6966 534946.2959 16303.7533 -4910.6966
ENERGY: 760 248.6324 734.8491 2842.6837 0.0000 -201135.5321 21816.8197 88.4967 0.0000 0.0000 -175404.0506 0.0000 -175404.0506 -175404.0506 0.0000 16303.1620 -4951.8950 534946.2959 16303.1620 -4951.8950
ENERGY: 780 176.1009 682.3149 2847.0253 0.0000 -201312.2823 21884.4471 91.0106 0.0000 0.0000 -175631.3835 0.0000 -175631.3835 -175631.3835 0.0000 16327.8438 -4927.5983 534946.2959 16327.8438 -4927.5983
ENERGY: 800 171.0880 705.3072 2845.6823 0.0000 -202044.2616 22220.1661 97.5122 0.0000 0.0000 -176004.5059 0.0000 -176004.5059 -176004.5059 0.0000 16519.4451 -4841.5405 534946.2959 16519.4451 -4841.5405
TCL: Setting parameter constraintScaling to 0.0390625
TCL: Minimizing for 100 steps
ETITLE: TS BOND ANGLE DIHED IMPRP ELECT VDW BOUNDARY MISC KINETIC TOTAL TEMP POTENTIAL TOTAL3 TEMPAVG PRESSURE GPRESSURE VOLUME PRESSAVG GPRESSAVG
ENERGY: 800 171.0880 705.3072 2845.6823 0.0000 -202044.2616 22220.1661 48.7561 0.0000 0.0000 -176053.2620 0.0000 -176053.2620 -176053.2620 0.0000 16562.0878 -27206.3242 534946.2959 16562.0878 -27206.3242
ENERGY: 820 346.9957 706.5655 2826.7242 0.0000 -202204.4435 22242.6047 48.1992 0.0000 0.0000 -176033.3542 0.0000 -176033.3542 -176033.3542 0.0000 16580.1491 -4800.1283 534946.2959 16580.1491 -4800.1283
ENERGY: 840 164.0408 649.0536 2827.8029 0.0000 -202267.7499 22260.5226 48.6047 0.0000 0.0000 -176317.7254 0.0000 -176317.7254 -176317.7254 0.0000 16591.3631 -4789.5262 534946.2959 16591.3631 -4789.5262
ENERGY: 860 236.5373 693.9634 2835.3376 0.0000 -202638.1447 22413.6125 50.7908 0.0000 0.0000 -176407.9030 0.0000 -176407.9030 -176407.9030 0.0000 16626.5678 -4773.8600 534946.2959 16626.5678 -4773.8600
ENERGY: 880 164.4202 661.8353 2823.6583 0.0000 -202707.9613 22432.3857 51.2309 0.0000 0.0000 -176574.4308 0.0000 -176574.4308 -176574.4308 0.0000 16664.9286 -4773.2072 534946.2959 16664.9286 -4773.2072
ENERGY: 900 193.5398 706.2730 2840.6758 0.0000 -203281.5296 22715.0843 55.4595 0.0000 0.0000 -176770.4971 0.0000 -176770.4971 -176770.4971 0.0000 16802.3890 -4697.6949 534946.2959 16802.3890 -4697.6949
TCL: Setting parameter constraintScaling to 0.01953125
TCL: Minimizing for 100 steps
ETITLE: TS BOND ANGLE DIHED IMPRP ELECT VDW BOUNDARY MISC KINETIC TOTAL TEMP POTENTIAL TOTAL3 TEMPAVG PRESSURE GPRESSURE VOLUME PRESSAVG GPRESSAVG
ENERGY: 900 193.5398 706.2730 2840.6758 0.0000 -203281.5296 22715.0843 27.7298 0.0000 0.0000 -176798.2269 0.0000 -176798.2269 -176798.2269 0.0000 16825.5458 -27234.0642 534946.2959 16825.5458 -27234.0642
ENERGY: 920 162.9875 655.4933 2820.2006 0.0000 -203436.7894 22728.6940 27.5604 0.0000 0.0000 -177041.8537 0.0000 -177041.8537 -177041.8537 0.0000 16841.9816 -4677.0294 534946.2959 16841.9816 -4677.0294
ENERGY: 940 163.0030 661.1835 2821.7746 0.0000 -203750.6027 22877.4905 28.3702 0.0000 0.0000 -177198.7810 0.0000 -177198.7810 -177198.7810 0.0000 16921.7513 -4632.3154 534946.2959 16921.7513 -4632.3154
ENERGY: 960 166.2661 657.5117 2818.1420 0.0000 -203846.1706 22902.0897 28.7927 0.0000 0.0000 -177273.3685 0.0000 -177273.3685 -177273.3685 0.0000 16920.8096 -4648.0226 534946.2959 16920.8096 -4648.0226
ENERGY: 980 187.8839 673.1057 2820.5026 0.0000 -204283.7903 23103.8389 30.4277 0.0000 0.0000 -177468.0316 0.0000 -177468.0316 -177468.0316 0.0000 17018.4135 -4601.4037 534946.2959 17018.4135 -4601.4037
ENERGY: 1000 179.1301 655.0862 2813.1152 0.0000 -204701.4871 23281.9681 31.2714 0.0000 0.0000 -177740.9160 0.0000 -177740.9160 -177740.9160 0.0000 17112.2079 -4547.0213 534946.2959 17112.2079 -4547.0213
TCL: Setting parameter constraintScaling to 0
TCL: Minimizing for 5000 steps
ETITLE: TS BOND ANGLE DIHED IMPRP ELECT VDW BOUNDARY MISC KINETIC TOTAL TEMP POTENTIAL TOTAL3 TEMPAVG PRESSURE GPRESSURE VOLUME PRESSAVG GPRESSAVG
ENERGY: 1000 179.1301 655.0862 2813.1152 0.0000 -204701.4871 23281.9681 0.0000 0.0000 0.0000 -177772.1874 0.0000 -177772.1874 -177772.1874 0.0000 17137.5002 -27270.2498 534946.2959 17137.5002 -27270.2498
ENERGY: 2000 169.8752 662.7516 2799.8051 0.0000 -214760.4321 27730.4602 0.0000 0.0000 0.0000 -183397.5400 0.0000 -183397.5400 -183397.5400 0.0000 19488.5430 -3320.4429 534946.2959 19488.5430 -3320.4429
ENERGY: 3000 167.8930 666.9999 2795.8067 0.0000 -217433.7415 28823.2356 0.0000 0.0000 0.0000 -184979.8062 0.0000 -184979.8062 -184979.8062 0.0000 20070.4477 -3018.9707 534946.2959 20070.4477 -3018.9707
ENERGY: 4000 166.2500 666.5246 2788.2259 0.0000 -218732.7031 29387.7193 0.0000 0.0000 0.0000 -185723.9832 0.0000 -185723.9832 -185723.9832 0.0000 20377.7775 -2842.3243 534946.2959 20377.7775 -2842.3243
ENERGY: 5000 173.8159 669.6944 2785.4373 0.0000 -219465.7329 29709.6697 0.0000 0.0000 0.0000 -186127.1155 0.0000 -186127.1155 -186127.1155 0.0000 20538.3587 -2763.1144 534946.2959 20538.3587 -2763.1144
ENERGY: 6000 167.4410 666.3204 2784.5535 0.0000 -219900.5687 29847.1613 0.0000 0.0000 0.0000 -186435.0924 0.0000 -186435.0924 -186435.0924 0.0000 20604.4040 -2738.5549 534946.2959 20604.4040 -2738.5549
