Info: SIMULATION PARAMETERS:
Info: TIMESTEP               2
Info: NUMBER OF STEPS        0
Info: STEPS PER CYCLE        10
Info: PERIODIC CELL BASIS 1  72.449 0 0
Info: PERIODIC CELL BASIS 2  0 93.247 0
Info: PERIODIC CELL BASIS 3  0 0 79.185
Info: PERIODIC CELL CENTER   -0.248 -0.156 -0.047
Info: WRAPPING WATERS AROUND PERIODIC BOUNDARIES ON OUTPUT.
Info: WRAPPING ALL CLUSTERS AROUND PERIODIC BOUNDARIES ON OUTPUT.
Info: FIRST LDB TIMESTEP     50
Info: LAST LDB TIMESTEP     -1
Info: HOM BACKGROUND SCALING 1
Info: PME BACKGROUND SCALING 1
Info: MIN ATOMS PER PATCH    40
Info: INITIAL TEMPERATURE    0
Info: CENTER OF MASS MOVING INITIALLY? NO
Info: DIELECTRIC             1
Info: EXCLUDE                SCALED ONE-FOUR
Info: 1-4 ELECTROSTATICS SCALED BY 0.833333
Info: MODIFIED 1-4 VDW PARAMETERS WILL BE USED
Info: NO DCD TRAJECTORY OUTPUT
Info: NO EXTENDED SYSTEM TRAJECTORY OUTPUT
Info: NO VELOCITY DCD OUTPUT
Info: NO FORCE DCD OUTPUT
Info: OUTPUT FILENAME        ../replicas/rep124/equilibration/eq0
Info: NO RESTART FILE
Info: SWITCHING ACTIVE
Info: SWITCHING ON           10
Info: SWITCHING OFF          12
Info: PAIRLIST DISTANCE      13.5
Info: PAIRLIST SHRINK RATE   0.01
Info: PAIRLIST GROW RATE     0.01
Info: PAIRLIST TRIGGER       0.3
Info: PAIRLISTS PER CYCLE    2
Info: PAIRLISTS ENABLED
Info: MARGIN                 0
Info: HYDROGEN GROUP CUTOFF  2.5
Info: PATCH DIMENSION        16
Info: ENERGY OUTPUT STEPS    500
Info: CROSSTERM ENERGY INCLUDED IN DIHEDRAL
Info: TIMING OUTPUT STEPS    5000
Info: PRESSURE OUTPUT STEPS  500
Info: HARMONIC CONSTRAINTS ACTIVE
Info: HARMONIC CONS EXP      2
Info: HARMONIC CONS SCALING  10
Info: CONJUGATE GRADIENT MINIMIZATION ACTIVE
Info: LINE MINIMIZATION GOAL = 0.001
Info: BABY STEP SIZE = 0.01
Info: TINY STEP SIZE = 1e-06
Info: PARTICLE MESH EWALD (PME) ACTIVE
Info: PME TOLERANCE               1e-06
Info: PME EWALD COEFFICIENT       0.257952
Info: PME INTERPOLATION ORDER     4
Info: PME GRID DIMENSIONS         80 96 80
Info: PME MAXIMUM GRID SPACING    1
Info: FULL ELECTROSTATIC EVALUATION FREQUENCY      2
Info: USING VERLET I (r-RESPA) MTS SCHEME.
Info: C1 SPLITTING OF LONG RANGE ELECTROSTATICS
Info: PLACING ATOMS IN PATCHES BY HYDROGEN GROUPS
Info: RIGID BONDS TO HYDROGEN : ALL
Info:         ERROR TOLERANCE : 1e-05
Info:          MAX ITERATIONS : 100
Info: RIGID WATER USING SETTLE ALGORITHM
Info: RANDOM NUMBER SEED     1503691734
Info: USE HYDROGEN BONDS?    NO
Info: Using AMBER format force field!
Info: AMBER PARM FILE        ../build/complex.top
Info: COORDINATE PDB         ../build/complex.pdb
Info: Exclusions in PARM file will be ignored!
Info: SCNB (VDW SCALING)     2
Info: USING ARITHMETIC MEAN TO COMBINE L-J SIGMA PARAMETERS
Info: SUMMARY OF PARAMETERS:
Info: 71 BONDS
Info: 145 ANGLES
Info: 76 DIHEDRAL
Info: 0 IMPROPER
Info: 0 CROSSTERM
Info: 0 VDW
Info: 190 VDW_PAIRS
Info: 0 NBTHOLE_PAIRS
Info: STRUCTURE SUMMARY:
Info: 49394 ATOMS
Info: 49448 BONDS
Info: 8698 ANGLES
Info: 18780 DIHEDRALS
Info: 0 IMPROPERS
Info: 0 CROSSTERMS
Info: 0 EXCLUSIONS
Info: 2336 CONSTRAINTS
Info: 47058 RIGID BONDS
Info: 101124 DEGREES OF FREEDOM
Info: 17225 HYDROGEN GROUPS
Info: 4 ATOMS IN LARGEST HYDROGEN GROUP
Info: 17225 MIGRATION GROUPS
Info: 4 ATOMS IN LARGEST MIGRATION GROUP
Info: TOTAL MASS = 301478 amu
Info: TOTAL CHARGE = 1.00115e-05 e
Info: MASS DENSITY = 0.935846 g/cm^3
Info: ATOM DENSITY = 0.0923345 atoms/A^3
Info: ADDED 70656 IMPLICIT EXCLUSIONS
Info: NONBONDED TABLE R-SQUARED SPACING: 0.0625
Info: NONBONDED TABLE SIZE: 769 POINTS
Info: REMOVING COM VELOCITY 0 0 0
TCL: Minimizing for 100 steps
ETITLE: TS BOND ANGLE DIHED IMPRP ELECT VDW BOUNDARY MISC KINETIC TOTAL TEMP POTENTIAL TOTAL3 TEMPAVG PRESSURE GPRESSURE VOLUME PRESSAVG GPRESSAVG
ENERGY: 0 155.4176 1012.2698 2855.7272 0.0000 -154496.7911 207729.2052 0.0468 0.0000 0.0000 57255.8755 0.0000 57255.8755 57255.8755 0.0000 116350.2532 86546.1670 534946.2959 116350.2532 86546.1670
ENERGY: 20 304.7547 935.7911 2893.4663 0.0000 -158672.9403 17936.6596 143.9454 0.0000 0.0000 -136458.3233 0.0000 -136458.3233 -136458.3233 0.0000 16523.9389 -239.4556 534946.2959 16523.9389 -239.4556
ENERGY: 40 198.7446 799.5728 2896.9273 0.0000 -162811.4539 16417.9535 221.3030 0.0000 0.0000 -142276.9528 0.0000 -142276.9528 -142276.9528 0.0000 15011.2701 -2135.4701 534946.2959 15011.2701 -2135.4701
ENERGY: 60 130.5283 715.3440 2898.2166 0.0000 -167496.1579 15446.7538 315.2796 0.0000 0.0000 -147990.0357 0.0000 -147990.0357 -147990.0357 0.0000 13793.8835 -3799.3990 534946.2959 13793.8835 -3799.3990
ENERGY: 80 431.2735 765.6308 2904.3786 0.0000 -169937.5331 15121.1519 372.0123 0.0000 0.0000 -150343.0860 0.0000 -150343.0860 -150343.0860 0.0000 13270.3300 -4577.2462 534946.2959 13270.3300 -4577.2462
ENERGY: 100 129.7135 708.0648 2904.2780 0.0000 -171050.0654 15018.6538 384.2000 0.0000 0.0000 -151905.1553 0.0000 -151905.1553 -151905.1553 0.0000 13092.9131 -4843.6311 534946.2959 13092.9131 -4843.6311
TCL: Setting parameter constraintScaling to 5.0
TCL: Minimizing for 100 steps
ETITLE: TS BOND ANGLE DIHED IMPRP ELECT VDW BOUNDARY MISC KINETIC TOTAL TEMP POTENTIAL TOTAL3 TEMPAVG PRESSURE GPRESSURE VOLUME PRESSAVG GPRESSAVG
ENERGY: 100 129.7135 708.0648 2904.2780 0.0000 -171050.0654 15018.6538 192.1000 0.0000 0.0000 -152097.2553 0.0000 -152097.2553 -152097.2553 0.0000 13703.5082 -22944.4541 534946.2959 13703.5082 -22944.4541
ENERGY: 120 118.6818 680.2876 2909.9066 0.0000 -172396.3100 14830.1208 259.9548 0.0000 0.0000 -153597.3584 0.0000 -153597.3584 -153597.3584 0.0000 13320.9480 -4756.3062 534946.2959 13320.9480 -4756.3062
ENERGY: 140 109.1484 671.1473 2912.0863 0.0000 -174830.2292 14716.1442 337.7298 0.0000 0.0000 -156083.9733 0.0000 -156083.9733 -156083.9733 0.0000 12908.9634 -5423.1387 534946.2959 12908.9634 -5423.1387
ENERGY: 160 302.9980 691.2587 2915.1770 0.0000 -176082.5893 14739.2646 369.8386 0.0000 0.0000 -157064.0524 0.0000 -157064.0524 -157064.0524 0.0000 12780.5519 -5682.1479 534946.2959 12780.5519 -5682.1479
ENERGY: 180 182.1868 640.7532 2917.0632 0.0000 -177289.4021 14805.0564 391.8970 0.0000 0.0000 -158352.4455 0.0000 -158352.4455 -158352.4455 0.0000 12715.3612 -5871.3642 534946.2959 12715.3612 -5871.3642
ENERGY: 200 200.8289 672.8163 2923.8870 0.0000 -179263.0447 15029.6776 438.8843 0.0000 0.0000 -159996.9505 0.0000 -159996.9505 -159996.9505 0.0000 12652.1204 -6146.5379 534946.2959 12652.1204 -6146.5379
TCL: Setting parameter constraintScaling to 2.5
TCL: Minimizing for 100 steps
ETITLE: TS BOND ANGLE DIHED IMPRP ELECT VDW BOUNDARY MISC KINETIC TOTAL TEMP POTENTIAL TOTAL3 TEMPAVG PRESSURE GPRESSURE VOLUME PRESSAVG GPRESSAVG
ENERGY: 200 200.8289 672.8163 2923.8870 0.0000 -179263.0447 15029.6776 219.4421 0.0000 0.0000 -160216.3927 0.0000 -160216.3927 -160216.3927 0.0000 13194.5888 -25231.5677 534946.2959 13194.5888 -25231.5677
ENERGY: 220 129.4379 648.4199 2922.2167 0.0000 -180050.4977 15072.5963 269.1046 0.0000 0.0000 -161008.7222 0.0000 -161008.7222 -161008.7222 0.0000 13073.4292 -5820.2770 534946.2959 13073.4292 -5820.2770
ENERGY: 240 148.6797 630.0355 2922.2761 0.0000 -182011.0831 15361.2841 366.0651 0.0000 0.0000 -162582.7425 0.0000 -162582.7425 -162582.7425 0.0000 12907.0268 -6172.9045 534946.2959 12907.0268 -6172.9045
ENERGY: 260 225.6654 662.3276 2925.6694 0.0000 -183827.2662 15792.0599 453.4389 0.0000 0.0000 -163768.1050 0.0000 -163768.1050 -163768.1050 0.0000 12946.2410 -6345.7598 534946.2959 12946.2410 -6345.7598
ENERGY: 280 121.4609 633.4371 2921.9951 0.0000 -185453.5371 16338.8465 504.9333 0.0000 0.0000 -164932.8642 0.0000 -164932.8642 -164932.8642 0.0000 13109.6498 -6356.3121 534946.2959 13109.6498 -6356.3121
ENERGY: 300 160.9120 675.4330 2920.9585 0.0000 -186165.5978 16566.4077 445.6278 0.0000 0.0000 -165396.2588 0.0000 -165396.2588 -165396.2588 0.0000 13331.6754 -6215.5019 534946.2959 13331.6754 -6215.5019
TCL: Setting parameter constraintScaling to 1.25
TCL: Minimizing for 100 steps
ETITLE: TS BOND ANGLE DIHED IMPRP ELECT VDW BOUNDARY MISC KINETIC TOTAL TEMP POTENTIAL TOTAL3 TEMPAVG PRESSURE GPRESSURE VOLUME PRESSAVG GPRESSAVG
ENERGY: 300 160.9120 675.4330 2920.9585 0.0000 -186165.5978 16566.4077 222.8139 0.0000 0.0000 -165619.0727 0.0000 -165619.0727 -165619.0727 0.0000 13763.5505 -26253.6094 534946.2959 13763.5505 -26253.6094
ENERGY: 320 350.9068 723.6121 2937.6023 0.0000 -186896.3409 16677.4906 300.0915 0.0000 0.0000 -165906.6377 0.0000 -165906.6377 -165906.6377 0.0000 13583.6050 -6029.7628 534946.2959 13583.6050 -6029.7628
ENERGY: 340 171.1635 661.4607 2904.8063 0.0000 -187461.5853 16864.3294 307.0079 0.0000 0.0000 -166552.8174 0.0000 -166552.8174 -166552.8174 0.0000 13706.9736 -5997.6081 534946.2959 13706.9736 -5997.6081
ENERGY: 360 138.0445 635.2250 2909.8782 0.0000 -188292.4276 17101.9287 343.0252 0.0000 0.0000 -167164.3260 0.0000 -167164.3260 -167164.3260 0.0000 13746.6477 -6041.0417 534946.2959 13746.6477 -6041.0417
ENERGY: 380 219.4050 668.3423 2906.2714 0.0000 -189568.5051 17567.1399 350.1780 0.0000 0.0000 -167857.1685 0.0000 -167857.1685 -167857.1685 0.0000 14033.9538 -5941.3623 534946.2959 14033.9538 -5941.3623
ENERGY: 400 136.2880 626.0997 2899.5454 0.0000 -191362.5266 18331.3430 368.1638 0.0000 0.0000 -169001.0867 0.0000 -169001.0867 -169001.0867 0.0000 14333.2079 -5785.8805 534946.2959 14333.2079 -5785.8805
TCL: Setting parameter constraintScaling to 0.625
TCL: Minimizing for 100 steps
ETITLE: TS BOND ANGLE DIHED IMPRP ELECT VDW BOUNDARY MISC KINETIC TOTAL TEMP POTENTIAL TOTAL3 TEMPAVG PRESSURE GPRESSURE VOLUME PRESSAVG GPRESSAVG
ENERGY: 400 136.2880 626.0997 2899.5454 0.0000 -191362.5266 18331.3430 184.0819 0.0000 0.0000 -169185.1686 0.0000 -169185.1686 -169185.1686 0.0000 14625.6842 -26637.5335 534946.2959 14625.6842 -26637.5335
ENERGY: 420 146.2966 628.4877 2891.3341 0.0000 -191903.7896 18428.2557 228.5931 0.0000 0.0000 -169580.8224 0.0000 -169580.8224 -169580.8224 0.0000 14538.8801 -5649.4949 534946.2959 14538.8801 -5649.4949
ENERGY: 440 403.6190 710.6904 2887.8141 0.0000 -192887.6228 18773.0505 263.2126 0.0000 0.0000 -169849.2363 0.0000 -169849.2363 -169849.2363 0.0000 14678.7463 -5637.3822 534946.2959 14678.7463 -5637.3822
ENERGY: 460 150.4346 644.0576 2891.7061 0.0000 -192818.6527 18718.7697 265.0179 0.0000 0.0000 -170148.6668 0.0000 -170148.6668 -170148.6668 0.0000 14608.4208 -5680.7937 534946.2959 14608.4208 -5680.7937
ENERGY: 480 340.0520 660.3602 2879.6639 0.0000 -194340.0641 19326.0103 291.0386 0.0000 0.0000 -170842.9391 0.0000 -170842.9391 -170842.9391 0.0000 14922.3689 -5545.9646 534946.2959 14922.3689 -5545.9646
ENERGY: 500 159.7849 674.6581 2883.1145 0.0000 -195380.3057 19734.1365 321.8384 0.0000 0.0000 -171606.7734 0.0000 -171606.7734 -171606.7734 0.0000 15078.1942 -5498.3868 534946.2959 15078.1942 -5498.3868
TCL: Setting parameter constraintScaling to 0.3125
TCL: Minimizing for 100 steps
ETITLE: TS BOND ANGLE DIHED IMPRP ELECT VDW BOUNDARY MISC KINETIC TOTAL TEMP POTENTIAL TOTAL3 TEMPAVG PRESSURE GPRESSURE VOLUME PRESSAVG GPRESSAVG
ENERGY: 500 159.7849 674.6581 2883.1145 0.0000 -195380.3057 19734.1365 160.9192 0.0000 0.0000 -171767.6926 0.0000 -171767.6926 -171767.6926 0.0000 15277.1827 -26918.4304 534946.2959 15277.1827 -26918.4304
ENERGY: 520 151.0780 642.7573 2872.7540 0.0000 -195574.2121 19794.8074 170.0709 0.0000 0.0000 -171942.7445 0.0000 -171942.7445 -171942.7445 0.0000 15295.7073 -5313.6389 534946.2959 15295.7073 -5313.6389
ENERGY: 540 175.2520 689.3633 2875.5626 0.0000 -196322.0380 20053.9655 197.0436 0.0000 0.0000 -172330.8510 0.0000 -172330.8510 -172330.8510 0.0000 15356.3052 -5344.1910 534946.2959 15356.3052 -5344.1910
ENERGY: 560 158.3248 643.1130 2864.7237 0.0000 -196508.9905 20123.0775 194.9192 0.0000 0.0000 -172524.8323 0.0000 -172524.8323 -172524.8323 0.0000 15392.1012 -5312.6768 534946.2959 15392.1012 -5312.6768
ENERGY: 580 505.7355 781.4010 2887.1420 0.0000 -197549.9556 20506.1620 213.0009 0.0000 0.0000 -172656.5143 0.0000 -172656.5143 -172656.5143 0.0000 15470.8809 -5334.9685 534946.2959 15470.8809 -5334.9685
ENERGY: 600 209.3789 700.2058 2873.2603 0.0000 -198532.2804 20921.1469 235.9879 0.0000 0.0000 -173592.3006 0.0000 -173592.3006 -173592.3006 0.0000 15757.0323 -5187.4415 534946.2959 15757.0323 -5187.4415
TCL: Setting parameter constraintScaling to 0.15625
TCL: Minimizing for 100 steps
ETITLE: TS BOND ANGLE DIHED IMPRP ELECT VDW BOUNDARY MISC KINETIC TOTAL TEMP POTENTIAL TOTAL3 TEMPAVG PRESSURE GPRESSURE VOLUME PRESSAVG GPRESSAVG
ENERGY: 600 209.3789 700.2058 2873.2603 0.0000 -198532.2804 20921.1469 117.9940 0.0000 0.0000 -173710.2946 0.0000 -173710.2946 -173710.2946 0.0000 15883.6770 -27058.0909 534946.2959 15883.6770 -27058.0909
ENERGY: 620 208.1661 682.6721 2852.0772 0.0000 -198817.8810 21032.1450 123.7916 0.0000 0.0000 -173919.0290 0.0000 -173919.0290 -173919.0290 0.0000 15919.2896 -5064.5569 534946.2959 15919.2896 -5064.5569
ENERGY: 640 175.1997 664.7530 2851.2496 0.0000 -199167.0925 21140.3510 133.2119 0.0000 0.0000 -174202.3273 0.0000 -174202.3273 -174202.3273 0.0000 15960.7266 -5063.9857 534946.2959 15960.7266 -5063.9857
ENERGY: 660 166.6836 666.2749 2849.6903 0.0000 -199722.3508 21322.6672 144.5936 0.0000 0.0000 -174572.4412 0.0000 -174572.4412 -174572.4412 0.0000 16018.1300 -5070.9394 534946.2959 16018.1300 -5070.9394
ENERGY: 680 161.1861 655.1524 2845.0872 0.0000 -199893.6120 21385.6165 141.4744 0.0000 0.0000 -174705.0955 0.0000 -174705.0955 -174705.0955 0.0000 16073.8803 -5028.6640 534946.2959 16073.8803 -5028.6640
ENERGY: 700 179.4083 679.6607 2864.4859 0.0000 -200605.0250 21703.4537 145.8645 0.0000 0.0000 -175032.1519 0.0000 -175032.1519 -175032.1519 0.0000 16259.4783 -4937.7501 534946.2959 16259.4783 -4937.7501
TCL: Setting parameter constraintScaling to 0.078125
TCL: Minimizing for 100 steps
ETITLE: TS BOND ANGLE DIHED IMPRP ELECT VDW BOUNDARY MISC KINETIC TOTAL TEMP POTENTIAL TOTAL3 TEMPAVG PRESSURE GPRESSURE VOLUME PRESSAVG GPRESSAVG
ENERGY: 700 179.4083 679.6607 2864.4859 0.0000 -200605.0250 21703.4537 72.9323 0.0000 0.0000 -175105.0841 0.0000 -175105.0841 -175105.0841 0.0000 16332.3436 -27110.4293 534946.2959 16332.3436 -27110.4293
ENERGY: 720 222.4329 679.9192 2837.9993 0.0000 -200948.3513 21766.3839 80.1865 0.0000 0.0000 -175361.4295 0.0000 -175361.4295 -175361.4295 0.0000 16321.6893 -4922.9082 534946.2959 16321.6893 -4922.9082
ENERGY: 740 252.3212 676.6237 2839.2337 0.0000 -201316.5730 21912.5717 85.5281 0.0000 0.0000 -175550.2945 0.0000 -175550.2945 -175550.2945 0.0000 16350.5235 -4922.0454 534946.2959 16350.5235 -4922.0454
ENERGY: 760 166.1250 654.4425 2832.2761 0.0000 -201649.3569 22033.2982 88.6774 0.0000 0.0000 -175874.5377 0.0000 -175874.5377 -175874.5377 0.0000 16426.7047 -4882.5297 534946.2959 16426.7047 -4882.5297
ENERGY: 780 179.6223 679.0532 2839.2453 0.0000 -201980.4030 22148.4781 89.5859 0.0000 0.0000 -176044.4183 0.0000 -176044.4183 -176044.4183 0.0000 16503.5893 -4862.1813 534946.2959 16503.5893 -4862.1813
ENERGY: 800 171.4441 660.5672 2833.5327 0.0000 -202596.0320 22465.1196 91.7580 0.0000 0.0000 -176373.6104 0.0000 -176373.6104 -176373.6104 0.0000 16696.0246 -4732.0885 534946.2959 16696.0246 -4732.0885
TCL: Setting parameter constraintScaling to 0.0390625
TCL: Minimizing for 100 steps
ETITLE: TS BOND ANGLE DIHED IMPRP ELECT VDW BOUNDARY MISC KINETIC TOTAL TEMP POTENTIAL TOTAL3 TEMPAVG PRESSURE GPRESSURE VOLUME PRESSAVG GPRESSAVG
ENERGY: 800 171.4441 660.5672 2833.5327 0.0000 -202596.0320 22465.1196 45.8790 0.0000 0.0000 -176419.4894 0.0000 -176419.4894 -176419.4894 0.0000 16737.7036 -27187.7571 534946.2959 16737.7036 -27187.7571
ENERGY: 820 249.8589 675.8637 2823.5122 0.0000 -202882.3175 22530.6718 48.9593 0.0000 0.0000 -176553.4516 0.0000 -176553.4516 -176553.4516 0.0000 16705.5533 -4751.3308 534946.2959 16705.5533 -4751.3308
ENERGY: 840 163.4002 652.7222 2822.6806 0.0000 -203122.2517 22619.5373 51.1737 0.0000 0.0000 -176812.7376 0.0000 -176812.7376 -176812.7376 0.0000 16755.4783 -4728.2756 534946.2959 16755.4783 -4728.2756
ENERGY: 860 168.1322 658.5192 2827.3475 0.0000 -203301.1129 22680.8133 51.5216 0.0000 0.0000 -176914.7791 0.0000 -176914.7791 -176914.7791 0.0000 16804.3020 -4711.2124 534946.2959 16804.3020 -4711.2124
ENERGY: 880 189.7507 664.5832 2821.3921 0.0000 -204141.3014 23075.0763 55.0503 0.0000 0.0000 -177335.4488 0.0000 -177335.4488 -177335.4488 0.0000 17031.3605 -4579.4950 534946.2959 17031.3605 -4579.4950
ENERGY: 900 172.6302 655.1418 2823.0923 0.0000 -204762.3598 23367.9379 58.9826 0.0000 0.0000 -177684.5750 0.0000 -177684.5750 -177684.5750 0.0000 17158.5355 -4521.8289 534946.2959 17158.5355 -4521.8289
TCL: Setting parameter constraintScaling to 0.01953125
TCL: Minimizing for 100 steps
ETITLE: TS BOND ANGLE DIHED IMPRP ELECT VDW BOUNDARY MISC KINETIC TOTAL TEMP POTENTIAL TOTAL3 TEMPAVG PRESSURE GPRESSURE VOLUME PRESSAVG GPRESSAVG
ENERGY: 900 172.6302 655.1418 2823.0923 0.0000 -204762.3598 23367.9379 29.4913 0.0000 0.0000 -177714.0663 0.0000 -177714.0663 -177714.0663 0.0000 17182.7903 -27250.0451 534946.2959 17182.7903 -27250.0451
ENERGY: 920 165.5475 652.1961 2812.8129 0.0000 -204821.3680 23387.2510 29.7794 0.0000 0.0000 -177773.7811 0.0000 -177773.7811 -177773.7811 0.0000 17205.4435 -4481.5524 534946.2959 17205.4435 -4481.5524
ENERGY: 940 189.9919 663.2963 2816.3577 0.0000 -204991.6991 23443.9456 30.6647 0.0000 0.0000 -177847.4429 0.0000 -177847.4429 -177847.4429 0.0000 17203.2958 -4502.8135 534946.2959 17203.2958 -4502.8135
ENERGY: 960 165.3410 653.0722 2810.1434 0.0000 -205224.6761 23546.2336 31.5678 0.0000 0.0000 -178018.3180 0.0000 -178018.3180 -178018.3180 0.0000 17254.7839 -4474.7515 534946.2959 17254.7839 -4474.7515
ENERGY: 980 165.2605 666.0798 2817.1198 0.0000 -205315.6742 23571.7672 31.7161 0.0000 0.0000 -178063.7308 0.0000 -178063.7308 -178063.7308 0.0000 17268.3624 -4477.0491 534946.2959 17268.3624 -4477.0491
ENERGY: 1000 214.9771 679.8747 2813.5636 0.0000 -206011.9380 23923.6757 33.2841 0.0000 0.0000 -178346.5627 0.0000 -178346.5627 -178346.5627 0.0000 17492.3524 -4341.1564 534946.2959 17492.3524 -4341.1564
TCL: Setting parameter constraintScaling to 0
TCL: Minimizing for 5000 steps
ETITLE: TS BOND ANGLE DIHED IMPRP ELECT VDW BOUNDARY MISC KINETIC TOTAL TEMP POTENTIAL TOTAL3 TEMPAVG PRESSURE GPRESSURE VOLUME PRESSAVG GPRESSAVG
ENERGY: 1000 214.9771 679.8747 2813.5636 0.0000 -206011.9380 23923.6757 0.0000 0.0000 0.0000 -178379.8468 0.0000 -178379.8468 -178379.8468 0.0000 17518.7900 -27219.2091 534946.2959 17518.7900 -27219.2091
ENERGY: 2000 170.5657 662.4545 2800.0618 0.0000 -214860.0428 27730.6325 0.0000 0.0000 0.0000 -183496.3283 0.0000 -183496.3283 -183496.3283 0.0000 19502.3391 -3316.1971 534946.2959 19502.3391 -3316.1971
ENERGY: 3000 167.1892 665.2872 2796.7045 0.0000 -217510.4446 28883.3007 0.0000 0.0000 0.0000 -184997.9630 0.0000 -184997.9630 -184997.9630 0.0000 20114.4334 -2981.7586 534946.2959 20114.4334 -2981.7586
ENERGY: 4000 167.5824 665.4083 2789.5519 0.0000 -218679.1906 29367.3552 0.0000 0.0000 0.0000 -185689.2927 0.0000 -185689.2927 -185689.2927 0.0000 20375.3748 -2838.6440 534946.2959 20375.3748 -2838.6440
ENERGY: 5000 166.8405 666.9662 2790.1129 0.0000 -219449.8518 29672.0512 0.0000 0.0000 0.0000 -186153.8810 0.0000 -186153.8810 -186153.8810 0.0000 20528.1029 -2734.0397 534946.2959 20528.1029 -2734.0397
ENERGY: 6000 166.7250 665.7170 2788.3149 0.0000 -219900.5530 29846.4800 0.0000 0.0000 0.0000 -186433.3160 0.0000 -186433.3160 -186433.3160 0.0000 20617.3636 -2695.9837 534946.2959 20617.3636 -2695.9837
