Info: SIMULATION PARAMETERS:
Info: TIMESTEP               2
Info: NUMBER OF STEPS        0
Info: STEPS PER CYCLE        10
Info: PERIODIC CELL BASIS 1  72.449 0 0
Info: PERIODIC CELL BASIS 2  0 93.247 0
Info: PERIODIC CELL BASIS 3  0 0 79.185
Info: PERIODIC CELL CENTER   -0.248 -0.156 -0.047
Info: WRAPPING WATERS AROUND PERIODIC BOUNDARIES ON OUTPUT.
Info: WRAPPING ALL CLUSTERS AROUND PERIODIC BOUNDARIES ON OUTPUT.
Info: FIRST LDB TIMESTEP     50
Info: LAST LDB TIMESTEP     -1
Info: HOM BACKGROUND SCALING 1
Info: PME BACKGROUND SCALING 1
Info: MIN ATOMS PER PATCH    40
Info: INITIAL TEMPERATURE    0
Info: CENTER OF MASS MOVING INITIALLY? NO
Info: DIELECTRIC             1
Info: EXCLUDE                SCALED ONE-FOUR
Info: 1-4 ELECTROSTATICS SCALED BY 0.833333
Info: MODIFIED 1-4 VDW PARAMETERS WILL BE USED
Info: NO DCD TRAJECTORY OUTPUT
Info: NO EXTENDED SYSTEM TRAJECTORY OUTPUT
Info: NO VELOCITY DCD OUTPUT
Info: NO FORCE DCD OUTPUT
Info: OUTPUT FILENAME        ../replicas/rep80/equilibration/eq0
Info: NO RESTART FILE
Info: SWITCHING ACTIVE
Info: SWITCHING ON           10
Info: SWITCHING OFF          12
Info: PAIRLIST DISTANCE      13.5
Info: PAIRLIST SHRINK RATE   0.01
Info: PAIRLIST GROW RATE     0.01
Info: PAIRLIST TRIGGER       0.3
Info: PAIRLISTS PER CYCLE    2
Info: PAIRLISTS ENABLED
Info: MARGIN                 0
Info: HYDROGEN GROUP CUTOFF  2.5
Info: PATCH DIMENSION        16
Info: ENERGY OUTPUT STEPS    500
Info: CROSSTERM ENERGY INCLUDED IN DIHEDRAL
Info: TIMING OUTPUT STEPS    5000
Info: PRESSURE OUTPUT STEPS  500
Info: HARMONIC CONSTRAINTS ACTIVE
Info: HARMONIC CONS EXP      2
Info: HARMONIC CONS SCALING  10
Info: CONJUGATE GRADIENT MINIMIZATION ACTIVE
Info: LINE MINIMIZATION GOAL = 0.001
Info: BABY STEP SIZE = 0.01
Info: TINY STEP SIZE = 1e-06
Info: PARTICLE MESH EWALD (PME) ACTIVE
Info: PME TOLERANCE               1e-06
Info: PME EWALD COEFFICIENT       0.257952
Info: PME INTERPOLATION ORDER     4
Info: PME GRID DIMENSIONS         80 96 80
Info: PME MAXIMUM GRID SPACING    1
Info: FULL ELECTROSTATIC EVALUATION FREQUENCY      2
Info: USING VERLET I (r-RESPA) MTS SCHEME.
Info: C1 SPLITTING OF LONG RANGE ELECTROSTATICS
Info: PLACING ATOMS IN PATCHES BY HYDROGEN GROUPS
Info: RIGID BONDS TO HYDROGEN : ALL
Info:         ERROR TOLERANCE : 1e-05
Info:          MAX ITERATIONS : 100
Info: RIGID WATER USING SETTLE ALGORITHM
Info: RANDOM NUMBER SEED     1503693791
Info: USE HYDROGEN BONDS?    NO
Info: Using AMBER format force field!
Info: AMBER PARM FILE        ../build/complex.top
Info: COORDINATE PDB         ../build/complex.pdb
Info: Exclusions in PARM file will be ignored!
Info: SCNB (VDW SCALING)     2
Info: USING ARITHMETIC MEAN TO COMBINE L-J SIGMA PARAMETERS
Info: SUMMARY OF PARAMETERS:
Info: 71 BONDS
Info: 145 ANGLES
Info: 76 DIHEDRAL
Info: 0 IMPROPER
Info: 0 CROSSTERM
Info: 0 VDW
Info: 190 VDW_PAIRS
Info: 0 NBTHOLE_PAIRS
Info: STRUCTURE SUMMARY:
Info: 49394 ATOMS
Info: 49448 BONDS
Info: 8698 ANGLES
Info: 18780 DIHEDRALS
Info: 0 IMPROPERS
Info: 0 CROSSTERMS
Info: 0 EXCLUSIONS
Info: 2336 CONSTRAINTS
Info: 47058 RIGID BONDS
Info: 101124 DEGREES OF FREEDOM
Info: 17225 HYDROGEN GROUPS
Info: 4 ATOMS IN LARGEST HYDROGEN GROUP
Info: 17225 MIGRATION GROUPS
Info: 4 ATOMS IN LARGEST MIGRATION GROUP
Info: TOTAL MASS = 301478 amu
Info: TOTAL CHARGE = 1.00115e-05 e
Info: MASS DENSITY = 0.935846 g/cm^3
Info: ATOM DENSITY = 0.0923345 atoms/A^3
Info: ADDED 70656 IMPLICIT EXCLUSIONS
Info: NONBONDED TABLE R-SQUARED SPACING: 0.0625
Info: NONBONDED TABLE SIZE: 769 POINTS
Info: REMOVING COM VELOCITY 0 0 0
TCL: Minimizing for 100 steps
ETITLE: TS BOND ANGLE DIHED IMPRP ELECT VDW BOUNDARY MISC KINETIC TOTAL TEMP POTENTIAL TOTAL3 TEMPAVG PRESSURE GPRESSURE VOLUME PRESSAVG GPRESSAVG
ENERGY: 0 155.4176 1012.2698 2855.7272 0.0000 -154496.7912 207729.2052 0.0468 0.0000 0.0000 57255.8754 0.0000 57255.8754 57255.8754 0.0000 116350.2532 86546.1670 534946.2959 116350.2532 86546.1670
ENERGY: 20 304.7539 935.7910 2893.4663 0.0000 -158672.9396 17936.6599 143.9454 0.0000 0.0000 -136458.3231 0.0000 -136458.3231 -136458.3231 0.0000 16523.9392 -239.4552 534946.2959 16523.9392 -239.4552
ENERGY: 40 198.7434 799.5726 2896.9273 0.0000 -162811.4542 16417.9534 221.3030 0.0000 0.0000 -142276.9546 0.0000 -142276.9546 -142276.9546 0.0000 15011.2700 -2135.4702 534946.2959 15011.2700 -2135.4702
ENERGY: 60 130.5283 715.3440 2898.2166 0.0000 -167496.1576 15446.7539 315.2796 0.0000 0.0000 -147990.0352 0.0000 -147990.0352 -147990.0352 0.0000 13793.8836 -3799.3988 534946.2959 13793.8836 -3799.3988
ENERGY: 80 431.2740 765.6311 2904.3784 0.0000 -169937.5226 15121.1532 372.0120 0.0000 0.0000 -150343.0739 0.0000 -150343.0739 -150343.0739 0.0000 13270.3324 -4577.2430 534946.2959 13270.3324 -4577.2430
ENERGY: 100 119.3883 710.0603 2905.2590 0.0000 -171259.7194 14991.7862 387.3614 0.0000 0.0000 -152145.8642 0.0000 -152145.8642 -152145.8642 0.0000 13056.2641 -4908.1748 534946.2959 13056.2641 -4908.1748
TCL: Setting parameter constraintScaling to 5.0
TCL: Minimizing for 100 steps
ETITLE: TS BOND ANGLE DIHED IMPRP ELECT VDW BOUNDARY MISC KINETIC TOTAL TEMP POTENTIAL TOTAL3 TEMPAVG PRESSURE GPRESSURE VOLUME PRESSAVG GPRESSAVG
ENERGY: 100 119.3883 710.0603 2905.2590 0.0000 -171259.7194 14991.7862 193.6807 0.0000 0.0000 -152339.5449 0.0000 -152339.5449 -152339.5449 0.0000 13672.7703 -23021.8209 534946.2959 13672.7703 -23021.8209
ENERGY: 120 108.8861 687.5852 2912.9268 0.0000 -172865.8720 14798.2712 281.1914 0.0000 0.0000 -154077.0114 0.0000 -154077.0114 -154077.0114 0.0000 13218.2566 -4906.0134 534946.2959 13218.2566 -4906.0134
ENERGY: 140 309.4730 708.8743 2913.8027 0.0000 -174236.5963 14731.4855 326.6374 0.0000 0.0000 -155246.3234 0.0000 -155246.3234 -155246.3234 0.0000 12971.5332 -5303.2273 534946.2959 12971.5332 -5303.2273
ENERGY: 160 265.0656 683.0635 2923.1639 0.0000 -176274.2732 14757.2729 382.8499 0.0000 0.0000 -157262.8574 0.0000 -157262.8574 -157262.8574 0.0000 12741.0935 -5742.3154 534946.2959 12741.0935 -5742.3154
ENERGY: 180 269.0075 744.0938 2928.5661 0.0000 -178994.5589 15023.3735 473.2583 0.0000 0.0000 -159556.2598 0.0000 -159556.2598 -159556.2598 0.0000 12521.6512 -6223.3376 534946.2959 12521.6512 -6223.3376
ENERGY: 200 238.7841 694.1039 2941.3554 0.0000 -181555.6821 15586.9152 546.2557 0.0000 0.0000 -161548.2678 0.0000 -161548.2678 -161548.2678 0.0000 12582.6359 -6429.5449 534946.2959 12582.6359 -6429.5449
TCL: Setting parameter constraintScaling to 2.5
TCL: Minimizing for 100 steps
ETITLE: TS BOND ANGLE DIHED IMPRP ELECT VDW BOUNDARY MISC KINETIC TOTAL TEMP POTENTIAL TOTAL3 TEMPAVG PRESSURE GPRESSURE VOLUME PRESSAVG GPRESSAVG
ENERGY: 200 238.7841 694.1039 2941.3554 0.0000 -181555.6821 15586.9152 273.1279 0.0000 0.0000 -161821.3956 0.0000 -161821.3956 -161821.3956 0.0000 13229.5295 -25660.3013 534946.2959 13229.5295 -25660.3013
ENERGY: 220 251.1297 680.0457 2933.0274 0.0000 -182082.9139 15470.6727 338.6612 0.0000 0.0000 -162409.3772 0.0000 -162409.3772 -162409.3772 0.0000 12967.5724 -6100.1812 534946.2959 12967.5724 -6100.1812
ENERGY: 240 139.2434 665.8324 2928.5951 0.0000 -182462.5586 15494.0655 343.6322 0.0000 0.0000 -162891.1900 0.0000 -162891.1900 -162891.1900 0.0000 13034.1910 -6112.9256 534946.2959 13034.1910 -6112.9256
ENERGY: 260 164.9523 683.7393 2921.6343 0.0000 -183941.0039 15800.3537 385.3860 0.0000 0.0000 -163984.9383 0.0000 -163984.9383 -163984.9383 0.0000 13031.9182 -6251.5154 534946.2959 13031.9182 -6251.5154
ENERGY: 280 169.0821 700.9629 2917.6138 0.0000 -185424.5655 16229.7631 454.7790 0.0000 0.0000 -164952.3646 0.0000 -164952.3646 -164952.3646 0.0000 13144.0816 -6343.4134 534946.2959 13144.0816 -6343.4134
ENERGY: 300 126.6691 639.5689 2916.2575 0.0000 -186096.8325 16446.8040 481.3835 0.0000 0.0000 -165486.1494 0.0000 -165486.1494 -165486.1494 0.0000 13208.2283 -6348.1872 534946.2959 13208.2283 -6348.1872
TCL: Setting parameter constraintScaling to 1.25
TCL: Minimizing for 100 steps
ETITLE: TS BOND ANGLE DIHED IMPRP ELECT VDW BOUNDARY MISC KINETIC TOTAL TEMP POTENTIAL TOTAL3 TEMPAVG PRESSURE GPRESSURE VOLUME PRESSAVG GPRESSAVG
ENERGY: 300 126.6691 639.5689 2916.2575 0.0000 -186096.8325 16446.8040 240.6918 0.0000 0.0000 -165726.8411 0.0000 -165726.8411 -165726.8411 0.0000 13656.5895 -26358.4116 534946.2959 13656.5895 -26358.4116
ENERGY: 320 132.1543 624.5963 2911.1484 0.0000 -186668.1694 16580.7474 272.7762 0.0000 0.0000 -166146.7468 0.0000 -166146.7468 -166146.7468 0.0000 13630.0996 -5979.7091 534946.2959 13630.0996 -5979.7091
ENERGY: 340 152.9251 625.4572 2910.7236 0.0000 -187383.2048 16813.1396 296.3825 0.0000 0.0000 -166584.5768 0.0000 -166584.5768 -166584.5768 0.0000 13646.3266 -6018.2924 534946.2959 13646.3266 -6018.2924
ENERGY: 360 177.6924 676.9499 2908.4313 0.0000 -188901.6808 17329.9306 358.1607 0.0000 0.0000 -167450.5159 0.0000 -167450.5159 -167450.5159 0.0000 13863.6088 -6012.9112 534946.2959 13863.6088 -6012.9112
ENERGY: 380 473.3385 706.2085 2906.8500 0.0000 -190203.1743 17849.7556 390.5949 0.0000 0.0000 -167876.4267 0.0000 -167876.4267 -167876.4267 0.0000 13965.6188 -6027.4261 534946.2959 13965.6188 -6027.4261
ENERGY: 400 138.9650 633.3356 2899.7483 0.0000 -190459.1188 17923.3105 394.4861 0.0000 0.0000 -168469.2734 0.0000 -168469.2734 -168469.2734 0.0000 14119.3689 -5929.8329 534946.2959 14119.3689 -5929.8329
TCL: Setting parameter constraintScaling to 0.625
TCL: Minimizing for 100 steps
ETITLE: TS BOND ANGLE DIHED IMPRP ELECT VDW BOUNDARY MISC KINETIC TOTAL TEMP POTENTIAL TOTAL3 TEMPAVG PRESSURE GPRESSURE VOLUME PRESSAVG GPRESSAVG
ENERGY: 400 138.9650 633.3356 2899.7483 0.0000 -190459.1188 17923.3105 197.2430 0.0000 0.0000 -168666.5165 0.0000 -168666.5165 -168666.5165 0.0000 14417.4544 -26616.9626 534946.2959 14417.4544 -26616.9626
ENERGY: 420 148.6251 627.0739 2895.3672 0.0000 -190862.3925 18016.6525 218.6601 0.0000 0.0000 -168956.0137 0.0000 -168956.0137 -168956.0137 0.0000 14350.4347 -5726.5099 534946.2959 14350.4347 -5726.5099
ENERGY: 440 194.8155 637.9794 2900.7584 0.0000 -191463.9627 18208.1844 237.9679 0.0000 0.0000 -169284.2571 0.0000 -169284.2571 -169284.2571 0.0000 14330.8333 -5783.6020 534946.2959 14330.8333 -5783.6020
ENERGY: 460 172.4509 650.3996 2888.1058 0.0000 -192322.0677 18502.6937 263.1178 0.0000 0.0000 -169845.2999 0.0000 -169845.2999 -169845.2999 0.0000 14558.8876 -5707.6540 534946.2959 14558.8876 -5707.6540
ENERGY: 480 142.8595 641.9799 2881.2608 0.0000 -193372.7614 18910.0729 292.3039 0.0000 0.0000 -170504.2844 0.0000 -170504.2844 -170504.2844 0.0000 14721.0906 -5660.4334 534946.2959 14721.0906 -5660.4334
ENERGY: 500 191.1168 651.9237 2885.9645 0.0000 -193789.6129 19075.6332 300.0218 0.0000 0.0000 -170684.9529 0.0000 -170684.9529 -170684.9529 0.0000 14707.9564 -5680.1096 534946.2959 14707.9564 -5680.1096
TCL: Setting parameter constraintScaling to 0.3125
TCL: Minimizing for 100 steps
ETITLE: TS BOND ANGLE DIHED IMPRP ELECT VDW BOUNDARY MISC KINETIC TOTAL TEMP POTENTIAL TOTAL3 TEMPAVG PRESSURE GPRESSURE VOLUME PRESSAVG GPRESSAVG
ENERGY: 500 191.1168 651.9237 2885.9645 0.0000 -193789.6129 19075.6332 150.0109 0.0000 0.0000 -170834.9638 0.0000 -170834.9638 -170834.9638 0.0000 14901.5848 -26918.8500 534946.2959 14901.5848 -26918.8500
ENERGY: 520 337.5096 694.6297 2879.5862 0.0000 -194056.5947 19167.7276 157.7446 0.0000 0.0000 -170819.3969 0.0000 -170819.3969 -170819.3969 0.0000 14981.2051 -5457.4370 534946.2959 14981.2051 -5457.4370
ENERGY: 540 148.3029 644.0548 2874.6791 0.0000 -194384.4770 19275.4235 166.9520 0.0000 0.0000 -171275.0647 0.0000 -171275.0647 -171275.0647 0.0000 15035.6527 -5450.5044 534946.2959 15035.6527 -5450.5044
ENERGY: 560 165.9661 635.9883 2873.6281 0.0000 -195012.6964 19504.8230 180.7069 0.0000 0.0000 -171651.5840 0.0000 -171651.5840 -171651.5840 0.0000 15105.5553 -5440.4461 534946.2959 15105.5553 -5440.4461
ENERGY: 580 155.0598 648.3666 2866.3644 0.0000 -196055.4643 19905.8340 204.4550 0.0000 0.0000 -172275.3844 0.0000 -172275.3844 -172275.3844 0.0000 15279.7992 -5386.1962 534946.2959 15279.7992 -5386.1962
ENERGY: 600 159.3892 655.5225 2872.2352 0.0000 -196231.2949 19970.2652 206.7730 0.0000 0.0000 -172367.1099 0.0000 -172367.1099 -172367.1099 0.0000 15280.5259 -5390.1193 534946.2959 15280.5259 -5390.1193
TCL: Setting parameter constraintScaling to 0.15625
TCL: Minimizing for 100 steps
ETITLE: TS BOND ANGLE DIHED IMPRP ELECT VDW BOUNDARY MISC KINETIC TOTAL TEMP POTENTIAL TOTAL3 TEMPAVG PRESSURE GPRESSURE VOLUME PRESSAVG GPRESSAVG
ENERGY: 600 159.3892 655.5225 2872.2352 0.0000 -196231.2949 19970.2652 103.3865 0.0000 0.0000 -172470.4964 0.0000 -172470.4964 -172470.4964 0.0000 15397.5224 -26993.6603 534946.2959 15397.5224 -26993.6603
ENERGY: 620 164.7286 661.0525 2863.1421 0.0000 -196510.5677 20076.3431 108.1919 0.0000 0.0000 -172637.1096 0.0000 -172637.1096 -172637.1096 0.0000 15454.9703 -5261.0929 534946.2959 15454.9703 -5261.0929
ENERGY: 640 176.8281 662.8937 2861.7807 0.0000 -197782.1414 20545.4379 129.4364 0.0000 0.0000 -173405.7647 0.0000 -173405.7647 -173405.7647 0.0000 15643.5577 -5219.8640 534946.2959 15643.5577 -5219.8640
ENERGY: 660 160.9750 647.7013 2854.2044 0.0000 -198203.8856 20720.0579 134.5520 0.0000 0.0000 -173686.3951 0.0000 -173686.3951 -173686.3951 0.0000 15719.3737 -5184.3784 534946.2959 15719.3737 -5184.3784
ENERGY: 680 177.6964 663.4549 2852.9273 0.0000 -198725.7916 20912.3518 140.1998 0.0000 0.0000 -173979.1615 0.0000 -173979.1615 -173979.1615 0.0000 15816.3528 -5152.7832 534946.2959 15816.3528 -5152.7832
ENERGY: 700 174.7523 665.0210 2853.2016 0.0000 -199306.5882 21131.4926 143.4985 0.0000 0.0000 -174338.6222 0.0000 -174338.6222 -174338.6222 0.0000 15970.7933 -5076.5852 534946.2959 15970.7933 -5076.5852
TCL: Setting parameter constraintScaling to 0.078125
TCL: Minimizing for 100 steps
ETITLE: TS BOND ANGLE DIHED IMPRP ELECT VDW BOUNDARY MISC KINETIC TOTAL TEMP POTENTIAL TOTAL3 TEMPAVG PRESSURE GPRESSURE VOLUME PRESSAVG GPRESSAVG
ENERGY: 700 174.7523 665.0210 2853.2016 0.0000 -199306.5882 21131.4926 71.7493 0.0000 0.0000 -174410.3714 0.0000 -174410.3714 -174410.3714 0.0000 16042.5430 -27082.8601 534946.2959 16042.5430 -27082.8601
ENERGY: 720 218.8887 696.0174 2854.2814 0.0000 -199702.8496 21268.5755 78.1949 0.0000 0.0000 -174586.8916 0.0000 -174586.8916 -174586.8916 0.0000 16047.3974 -5046.5719 534946.2959 16047.3974 -5046.5719
ENERGY: 740 178.7465 657.2842 2840.5383 0.0000 -200179.5399 21440.1635 82.8453 0.0000 0.0000 -174979.9621 0.0000 -174979.9621 -174979.9621 0.0000 16103.6046 -5032.1532 534946.2959 16103.6046 -5032.1532
ENERGY: 760 167.4052 652.6206 2837.5976 0.0000 -200591.6102 21598.0314 86.1251 0.0000 0.0000 -175249.8304 0.0000 -175249.8304 -175249.8304 0.0000 16192.9008 -4990.2396 534946.2959 16192.9008 -4990.2396
ENERGY: 780 215.2500 687.6647 2840.2836 0.0000 -201575.0122 21996.7506 92.1219 0.0000 0.0000 -175742.9414 0.0000 -175742.9414 -175742.9414 0.0000 16401.0778 -4901.8469 534946.2959 16401.0778 -4901.8469
ENERGY: 800 166.1925 646.3310 2830.6598 0.0000 -202416.9402 22388.8691 97.3857 0.0000 0.0000 -176287.5022 0.0000 -176287.5022 -176287.5022 0.0000 16662.9403 -4748.8889 534946.2959 16662.9403 -4748.8889
TCL: Setting parameter constraintScaling to 0.0390625
TCL: Minimizing for 100 steps
ETITLE: TS BOND ANGLE DIHED IMPRP ELECT VDW BOUNDARY MISC KINETIC TOTAL TEMP POTENTIAL TOTAL3 TEMPAVG PRESSURE GPRESSURE VOLUME PRESSAVG GPRESSAVG
ENERGY: 800 166.1925 646.3310 2830.6598 0.0000 -202416.9402 22388.8691 48.6929 0.0000 0.0000 -176336.1950 0.0000 -176336.1950 -176336.1950 0.0000 16706.2069 -27175.2884 534946.2959 16706.2069 -27175.2884
ENERGY: 820 286.0228 750.0431 2835.6296 0.0000 -202759.2048 22485.8103 52.4325 0.0000 0.0000 -176349.2665 0.0000 -176349.2665 -176349.2665 0.0000 16705.2294 -4759.7254 534946.2959 16705.2294 -4759.7254
ENERGY: 840 168.1960 654.2392 2822.8557 0.0000 -202899.5160 22540.1468 53.3194 0.0000 0.0000 -176660.7589 0.0000 -176660.7589 -176660.7589 0.0000 16706.5256 -4747.2935 534946.2959 16706.5256 -4747.2935
ENERGY: 860 173.9168 653.5863 2821.8864 0.0000 -203169.4817 22641.0103 54.6093 0.0000 0.0000 -176824.4726 0.0000 -176824.4726 -176824.4726 0.0000 16751.7505 -4728.6460 534946.2959 16751.7505 -4728.6460
ENERGY: 880 177.4650 669.2479 2821.7532 0.0000 -203320.3840 22703.7220 55.0812 0.0000 0.0000 -176893.1147 0.0000 -176893.1147 -176893.1147 0.0000 16821.8964 -4704.9442 534946.2959 16821.8964 -4704.9442
ENERGY: 900 169.8523 651.4243 2820.0592 0.0000 -203534.2384 22792.3640 56.0180 0.0000 0.0000 -177044.5205 0.0000 -177044.5205 -177044.5205 0.0000 16837.1341 -4691.7058 534946.2959 16837.1341 -4691.7058
TCL: Setting parameter constraintScaling to 0.01953125
TCL: Minimizing for 100 steps
ETITLE: TS BOND ANGLE DIHED IMPRP ELECT VDW BOUNDARY MISC KINETIC TOTAL TEMP POTENTIAL TOTAL3 TEMPAVG PRESSURE GPRESSURE VOLUME PRESSAVG GPRESSAVG
ENERGY: 900 169.8523 651.4243 2820.0592 0.0000 -203534.2384 22792.3640 28.0090 0.0000 0.0000 -177072.5295 0.0000 -177072.5295 -177072.5295 0.0000 16860.7101 -27278.9415 534946.2959 16860.7101 -27278.9415
ENERGY: 920 165.7902 648.8006 2817.8765 0.0000 -203692.8594 22854.8941 28.5747 0.0000 0.0000 -177176.9233 0.0000 -177176.9233 -177176.9233 0.0000 16896.2199 -4657.2923 534946.2959 16896.2199 -4657.2923
ENERGY: 940 162.4787 649.3644 2816.4288 0.0000 -203973.8987 22973.2371 29.4918 0.0000 0.0000 -177342.8979 0.0000 -177342.8979 -177342.8979 0.0000 16953.3932 -4632.7694 534946.2959 16953.3932 -4632.7694
ENERGY: 960 309.3155 702.0555 2816.9497 0.0000 -204392.3618 23148.7227 30.6350 0.0000 0.0000 -177384.6834 0.0000 -177384.6834 -177384.6834 0.0000 17042.2600 -4588.4912 534946.2959 17042.2600 -4588.4912
ENERGY: 980 261.4022 691.6762 2814.1755 0.0000 -204738.5550 23304.9708 31.6429 0.0000 0.0000 -177634.6873 0.0000 -177634.6873 -177634.6873 0.0000 17135.6647 -4550.6782 534946.2959 17135.6647 -4550.6782
ENERGY: 1000 162.8672 658.5786 2811.7442 0.0000 -205067.2853 23457.7624 32.6824 0.0000 0.0000 -177943.6505 0.0000 -177943.6505 -177943.6505 0.0000 17209.9635 -4507.4949 534946.2959 17209.9635 -4507.4949
TCL: Setting parameter constraintScaling to 0
TCL: Minimizing for 5000 steps
ETITLE: TS BOND ANGLE DIHED IMPRP ELECT VDW BOUNDARY MISC KINETIC TOTAL TEMP POTENTIAL TOTAL3 TEMPAVG PRESSURE GPRESSURE VOLUME PRESSAVG GPRESSAVG
ENERGY: 1000 162.8672 658.5786 2811.7442 0.0000 -205067.2853 23457.7624 0.0000 0.0000 0.0000 -177976.3329 0.0000 -177976.3329 -177976.3329 0.0000 17236.0546 -27270.0410 534946.2959 17236.0546 -27270.0410
ENERGY: 2000 166.9810 660.3136 2800.0731 0.0000 -214590.0523 27676.2887 0.0000 0.0000 0.0000 -183286.3959 0.0000 -183286.3959 -183286.3959 0.0000 19467.6681 -3319.2101 534946.2959 19467.6681 -3319.2101
ENERGY: 3000 189.8086 671.2296 2796.1289 0.0000 -217435.3632 28896.7119 0.0000 0.0000 0.0000 -184881.4843 0.0000 -184881.4843 -184881.4843 0.0000 20123.0494 -2958.4357 534946.2959 20123.0494 -2958.4357
ENERGY: 4000 167.1183 664.4838 2791.7837 0.0000 -218637.2388 29404.9281 0.0000 0.0000 0.0000 -185608.9248 0.0000 -185608.9248 -185608.9248 0.0000 20391.3430 -2815.0588 534946.2959 20391.3430 -2815.0588
ENERGY: 5000 166.0584 664.7462 2785.8088 0.0000 -219489.0181 29787.2729 0.0000 0.0000 0.0000 -186085.1317 0.0000 -186085.1317 -186085.1317 0.0000 20583.7473 -2715.8897 534946.2959 20583.7473 -2715.8897
ENERGY: 6000 165.8778 662.9171 2783.6764 0.0000 -219961.4205 29958.7830 0.0000 0.0000 0.0000 -186390.1663 0.0000 -186390.1663 -186390.1663 0.0000 20675.3385 -2680.7866 534946.2959 20675.3385 -2680.7866
