Info: SIMULATION PARAMETERS:
Info: TIMESTEP               2
Info: NUMBER OF STEPS        0
Info: STEPS PER CYCLE        10
Info: PERIODIC CELL BASIS 1  72.449 0 0
Info: PERIODIC CELL BASIS 2  0 93.247 0
Info: PERIODIC CELL BASIS 3  0 0 79.185
Info: PERIODIC CELL CENTER   -0.248 -0.156 -0.047
Info: WRAPPING WATERS AROUND PERIODIC BOUNDARIES ON OUTPUT.
Info: WRAPPING ALL CLUSTERS AROUND PERIODIC BOUNDARIES ON OUTPUT.
Info: FIRST LDB TIMESTEP     50
Info: LAST LDB TIMESTEP     -1
Info: HOM BACKGROUND SCALING 1
Info: PME BACKGROUND SCALING 1
Info: MIN ATOMS PER PATCH    40
Info: INITIAL TEMPERATURE    0
Info: CENTER OF MASS MOVING INITIALLY? NO
Info: DIELECTRIC             1
Info: EXCLUDE                SCALED ONE-FOUR
Info: 1-4 ELECTROSTATICS SCALED BY 0.833333
Info: MODIFIED 1-4 VDW PARAMETERS WILL BE USED
Info: NO DCD TRAJECTORY OUTPUT
Info: NO EXTENDED SYSTEM TRAJECTORY OUTPUT
Info: NO VELOCITY DCD OUTPUT
Info: NO FORCE DCD OUTPUT
Info: OUTPUT FILENAME        ../replicas/rep121/equilibration/eq0
Info: NO RESTART FILE
Info: SWITCHING ACTIVE
Info: SWITCHING ON           10
Info: SWITCHING OFF          12
Info: PAIRLIST DISTANCE      13.5
Info: PAIRLIST SHRINK RATE   0.01
Info: PAIRLIST GROW RATE     0.01
Info: PAIRLIST TRIGGER       0.3
Info: PAIRLISTS PER CYCLE    2
Info: PAIRLISTS ENABLED
Info: MARGIN                 0
Info: HYDROGEN GROUP CUTOFF  2.5
Info: PATCH DIMENSION        16
Info: ENERGY OUTPUT STEPS    500
Info: CROSSTERM ENERGY INCLUDED IN DIHEDRAL
Info: TIMING OUTPUT STEPS    5000
Info: PRESSURE OUTPUT STEPS  500
Info: HARMONIC CONSTRAINTS ACTIVE
Info: HARMONIC CONS EXP      2
Info: HARMONIC CONS SCALING  10
Info: CONJUGATE GRADIENT MINIMIZATION ACTIVE
Info: LINE MINIMIZATION GOAL = 0.001
Info: BABY STEP SIZE = 0.01
Info: TINY STEP SIZE = 1e-06
Info: PARTICLE MESH EWALD (PME) ACTIVE
Info: PME TOLERANCE               1e-06
Info: PME EWALD COEFFICIENT       0.257952
Info: PME INTERPOLATION ORDER     4
Info: PME GRID DIMENSIONS         80 96 80
Info: PME MAXIMUM GRID SPACING    1
Info: FULL ELECTROSTATIC EVALUATION FREQUENCY      2
Info: USING VERLET I (r-RESPA) MTS SCHEME.
Info: C1 SPLITTING OF LONG RANGE ELECTROSTATICS
Info: PLACING ATOMS IN PATCHES BY HYDROGEN GROUPS
Info: RIGID BONDS TO HYDROGEN : ALL
Info:         ERROR TOLERANCE : 1e-05
Info:          MAX ITERATIONS : 100
Info: RIGID WATER USING SETTLE ALGORITHM
Info: RANDOM NUMBER SEED     1503693229
Info: USE HYDROGEN BONDS?    NO
Info: Using AMBER format force field!
Info: AMBER PARM FILE        ../build/complex.top
Info: COORDINATE PDB         ../build/complex.pdb
Info: Exclusions in PARM file will be ignored!
Info: SCNB (VDW SCALING)     2
Info: USING ARITHMETIC MEAN TO COMBINE L-J SIGMA PARAMETERS
Info: SUMMARY OF PARAMETERS:
Info: 71 BONDS
Info: 145 ANGLES
Info:   145 HARMONIC
Info:   0 COSINE-BASED
Info: 76 DIHEDRAL
Info: 0 IMPROPER
Info: 0 CROSSTERM
Info: 0 VDW
Info: 190 VDW_PAIRS
Info: 0 NBTHOLE_PAIRS
Info: STRUCTURE SUMMARY:
Info: 49394 ATOMS
Info: 49448 BONDS
Info: 8698 ANGLES
Info: 18780 DIHEDRALS
Info: 0 IMPROPERS
Info: 0 CROSSTERMS
Info: 0 EXCLUSIONS
Info: 2336 CONSTRAINTS
Info: 47058 RIGID BONDS
Info: 101124 DEGREES OF FREEDOM
Info: 17225 HYDROGEN GROUPS
Info: 4 ATOMS IN LARGEST HYDROGEN GROUP
Info: 17225 MIGRATION GROUPS
Info: 4 ATOMS IN LARGEST MIGRATION GROUP
Info: TOTAL MASS = 301478 amu
Info: TOTAL CHARGE = 1.00115e-05 e
Info: MASS DENSITY = 0.935846 g/cm^3
Info: ATOM DENSITY = 0.0923345 atoms/A^3
Info: ADDED 70656 IMPLICIT EXCLUSIONS
Info: NONBONDED TABLE R-SQUARED SPACING: 0.0625
Info: NONBONDED TABLE SIZE: 769 POINTS
Info: REMOVING COM VELOCITY 0 0 0
TCL: Minimizing for 100 steps
ETITLE: TS BOND ANGLE DIHED IMPRP ELECT VDW BOUNDARY MISC KINETIC TOTAL TEMP POTENTIAL TOTAL3 TEMPAVG PRESSURE GPRESSURE VOLUME PRESSAVG GPRESSAVG
ENERGY: 0 155.4176 1012.2698 2855.7272 0.0000 -154496.7911 207729.2052 0.0468 0.0000 0.0000 57255.8755 0.0000 57255.8755 57255.8755 0.0000 116350.2532 86546.1670 534946.2959 116350.2532 86546.1670
ENERGY: 20 304.7535 935.7910 2893.4663 0.0000 -158672.9394 17936.6600 143.9453 0.0000 0.0000 -136458.3233 0.0000 -136458.3233 -136458.3233 0.0000 16523.9394 -239.4551 534946.2959 16523.9394 -239.4551
ENERGY: 40 198.7429 799.5725 2896.9273 0.0000 -162811.4546 16417.9533 221.3030 0.0000 0.0000 -142276.9557 0.0000 -142276.9557 -142276.9557 0.0000 15011.2699 -2135.4703 534946.2959 15011.2699 -2135.4703
ENERGY: 60 130.5284 715.3440 2898.2166 0.0000 -167496.1575 15446.7539 315.2796 0.0000 0.0000 -147990.0350 0.0000 -147990.0350 -147990.0350 0.0000 13793.8836 -3799.3988 534946.2959 13793.8836 -3799.3988
ENERGY: 80 431.2746 765.6312 2904.3784 0.0000 -169937.5227 15121.1532 372.0120 0.0000 0.0000 -150343.0734 0.0000 -150343.0734 -150343.0734 0.0000 13270.3323 -4577.2432 534946.2959 13270.3323 -4577.2432
ENERGY: 100 129.7159 708.0658 2904.2779 0.0000 -171050.0718 15018.6525 384.2000 0.0000 0.0000 -151905.1597 0.0000 -151905.1597 -151905.1597 0.0000 13092.9117 -4843.6340 534946.2959 13092.9117 -4843.6340
TCL: Setting parameter constraintScaling to 5.0
TCL: Minimizing for 100 steps
ETITLE: TS BOND ANGLE DIHED IMPRP ELECT VDW BOUNDARY MISC KINETIC TOTAL TEMP POTENTIAL TOTAL3 TEMPAVG PRESSURE GPRESSURE VOLUME PRESSAVG GPRESSAVG
ENERGY: 100 129.7159 708.0658 2904.2779 0.0000 -171050.0718 15018.6525 192.1000 0.0000 0.0000 -152097.2597 0.0000 -152097.2597 -152097.2597 0.0000 13703.5070 -22944.4568 534946.2959 13703.5070 -22944.4568
ENERGY: 120 118.6821 680.2878 2909.9066 0.0000 -172396.3237 14830.1199 259.9551 0.0000 0.0000 -153597.3722 0.0000 -153597.3722 -153597.3722 0.0000 13320.9458 -4756.3097 534946.2959 13320.9458 -4756.3097
ENERGY: 140 109.1496 671.1469 2912.0863 0.0000 -174830.2927 14716.1438 337.7314 0.0000 0.0000 -156084.0346 0.0000 -156084.0346 -156084.0346 0.0000 12908.9543 -5423.1544 534946.2959 12908.9543 -5423.1544
ENERGY: 160 125.8587 667.1484 2914.1928 0.0000 -175966.9653 14735.1309 362.9169 0.0000 0.0000 -157161.7176 0.0000 -157161.7176 -157161.7176 0.0000 12806.9046 -5637.2973 534946.2959 12806.9046 -5637.2973
ENERGY: 180 303.5378 659.6738 2917.2962 0.0000 -177408.5732 14815.0043 395.3799 0.0000 0.0000 -158317.6811 0.0000 -158317.6811 -158317.6811 0.0000 12699.3223 -5894.3288 534946.2959 12699.3223 -5894.3288
ENERGY: 200 109.2106 628.4846 2923.3607 0.0000 -179544.3525 15071.2408 441.8973 0.0000 0.0000 -160370.1586 0.0000 -160370.1586 -160370.1586 0.0000 12659.9883 -6155.4380 534946.2959 12659.9883 -6155.4380
TCL: Setting parameter constraintScaling to 2.5
TCL: Minimizing for 100 steps
ETITLE: TS BOND ANGLE DIHED IMPRP ELECT VDW BOUNDARY MISC KINETIC TOTAL TEMP POTENTIAL TOTAL3 TEMPAVG PRESSURE GPRESSURE VOLUME PRESSAVG GPRESSAVG
ENERGY: 200 109.2106 628.4846 2923.3607 0.0000 -179544.3525 15071.2408 220.9487 0.0000 0.0000 -160591.1072 0.0000 -160591.1072 -160591.1072 0.0000 13208.4227 -25274.6251 534946.2959 13208.4227 -25274.6251
ENERGY: 220 275.1577 652.1004 2925.2585 0.0000 -180396.1717 15108.9426 287.9897 0.0000 0.0000 -161146.7228 0.0000 -161146.7228 -161146.7228 0.0000 12999.9340 -5914.9038 534946.2959 12999.9340 -5914.9038
ENERGY: 240 144.4564 629.0101 2922.0864 0.0000 -181649.9663 15308.7092 331.4995 0.0000 0.0000 -162314.2046 0.0000 -162314.2046 -162314.2046 0.0000 12968.7598 -6075.9354 534946.2959 12968.7598 -6075.9354
ENERGY: 260 238.8621 648.3717 2922.1990 0.0000 -183614.9098 15754.2377 410.2705 0.0000 0.0000 -163640.9689 0.0000 -163640.9689 -163640.9689 0.0000 12997.8388 -6266.0703 534946.2959 12997.8388 -6266.0703
ENERGY: 280 122.3506 649.6314 2918.8937 0.0000 -184731.2365 16074.4956 431.7807 0.0000 0.0000 -164534.0844 0.0000 -164534.0844 -164534.0844 0.0000 13123.5126 -6272.4388 534946.2959 13123.5126 -6272.4388
ENERGY: 300 228.7046 690.4530 2927.5831 0.0000 -186455.4956 16638.4336 425.1621 0.0000 0.0000 -165545.1591 0.0000 -165545.1591 -165545.1591 0.0000 13389.5841 -6200.1646 534946.2959 13389.5841 -6200.1646
TCL: Setting parameter constraintScaling to 1.25
TCL: Minimizing for 100 steps
ETITLE: TS BOND ANGLE DIHED IMPRP ELECT VDW BOUNDARY MISC KINETIC TOTAL TEMP POTENTIAL TOTAL3 TEMPAVG PRESSURE GPRESSURE VOLUME PRESSAVG GPRESSAVG
ENERGY: 300 228.7046 690.4530 2927.5831 0.0000 -186455.4956 16638.4336 212.5810 0.0000 0.0000 -165757.7402 0.0000 -165757.7402 -165757.7402 0.0000 13800.0381 -26289.3196 534946.2959 13800.0381 -26289.3196
ENERGY: 320 169.2677 647.6991 2911.1459 0.0000 -186880.8529 16722.6864 244.9962 0.0000 0.0000 -166185.0576 0.0000 -166185.0576 -166185.0576 0.0000 13784.3119 -5846.3674 534946.2959 13784.3119 -5846.3674
ENERGY: 340 234.1134 715.3538 2919.8494 0.0000 -188979.9199 17325.4776 402.8815 0.0000 0.0000 -167382.2441 0.0000 -167382.2441 -167382.2441 0.0000 13712.8338 -6132.5960 534946.2959 13712.8338 -6132.5960
ENERGY: 360 174.9624 668.3065 2903.9300 0.0000 -189414.0224 17507.0671 360.7919 0.0000 0.0000 -167798.9644 0.0000 -167798.9644 -167798.9644 0.0000 13927.3401 -5984.0610 534946.2959 13927.3401 -5984.0610
ENERGY: 380 299.6628 727.4505 2916.4225 0.0000 -191693.6770 18469.0484 348.8572 0.0000 0.0000 -168932.2355 0.0000 -168932.2355 -168932.2355 0.0000 14471.4462 -5715.2424 534946.2959 14471.4462 -5715.2424
ENERGY: 400 166.0927 654.6488 2905.9874 0.0000 -193153.6655 19181.0071 376.1165 0.0000 0.0000 -169869.8130 0.0000 -169869.8130 -169869.8130 0.0000 14812.4462 -5525.4610 534946.2959 14812.4462 -5525.4610
TCL: Setting parameter constraintScaling to 0.625
TCL: Minimizing for 100 steps
ETITLE: TS BOND ANGLE DIHED IMPRP ELECT VDW BOUNDARY MISC KINETIC TOTAL TEMP POTENTIAL TOTAL3 TEMPAVG PRESSURE GPRESSURE VOLUME PRESSAVG GPRESSAVG
ENERGY: 400 166.0927 654.6488 2905.9874 0.0000 -193153.6655 19181.0071 188.0583 0.0000 0.0000 -170057.8712 0.0000 -170057.8712 -170057.8712 0.0000 15109.3479 -26573.1002 534946.2959 15109.3479 -26573.1002
ENERGY: 420 132.1659 632.7123 2889.8809 0.0000 -193513.7687 19150.1008 225.1703 0.0000 0.0000 -170483.7386 0.0000 -170483.7386 -170483.7386 0.0000 14983.6358 -5403.0636 534946.2959 14983.6358 -5403.0636
ENERGY: 440 269.9102 667.6742 2883.3662 0.0000 -194063.9011 19274.2522 274.4672 0.0000 0.0000 -170694.2310 0.0000 -170694.2310 -170694.2310 0.0000 14881.0882 -5557.4238 534946.2959 14881.0882 -5557.4238
ENERGY: 460 152.6517 649.0615 2888.2598 0.0000 -194289.3925 19350.1237 274.2341 0.0000 0.0000 -170975.0616 0.0000 -170975.0616 -170975.0616 0.0000 14939.7237 -5519.4190 534946.2959 14939.7237 -5519.4190
ENERGY: 480 158.9286 638.5701 2885.5891 0.0000 -195422.9787 19814.0808 287.3936 0.0000 0.0000 -171638.4165 0.0000 -171638.4165 -171638.4165 0.0000 15213.8199 -5372.3783 534946.2959 15213.8199 -5372.3783
ENERGY: 500 235.7660 684.0618 2879.3036 0.0000 -197701.7673 20823.3187 368.4049 0.0000 0.0000 -172710.9123 0.0000 -172710.9123 -172710.9123 0.0000 15653.6996 -5201.3955 534946.2959 15653.6996 -5201.3955
TCL: Setting parameter constraintScaling to 0.3125
TCL: Minimizing for 100 steps
ETITLE: TS BOND ANGLE DIHED IMPRP ELECT VDW BOUNDARY MISC KINETIC TOTAL TEMP POTENTIAL TOTAL3 TEMPAVG PRESSURE GPRESSURE VOLUME PRESSAVG GPRESSAVG
ENERGY: 500 235.7660 684.0618 2879.3036 0.0000 -197701.7673 20823.3187 184.2024 0.0000 0.0000 -172895.1147 0.0000 -172895.1147 -172895.1147 0.0000 15867.5425 -26875.5546 534946.2959 15867.5425 -26875.5546
ENERGY: 520 158.6193 629.2395 2871.7915 0.0000 -197846.4878 20800.1679 192.3806 0.0000 0.0000 -173194.2890 0.0000 -173194.2890 -173194.2890 0.0000 15786.9693 -5065.1245 534946.2959 15786.9693 -5065.1245
ENERGY: 540 175.1403 649.4599 2862.3839 0.0000 -198220.9311 20868.4810 210.5169 0.0000 0.0000 -173454.9491 0.0000 -173454.9491 -173454.9491 0.0000 15742.1328 -5159.0382 534946.2959 15742.1328 -5159.0382
ENERGY: 560 185.9122 666.0398 2863.6131 0.0000 -198793.1192 21047.9030 231.6904 0.0000 0.0000 -173797.9607 0.0000 -173797.9607 -173797.9607 0.0000 15828.0815 -5150.0360 534946.2959 15828.0815 -5150.0360
ENERGY: 580 368.1580 755.3480 2878.2186 0.0000 -199477.6685 21361.0089 221.8272 0.0000 0.0000 -173893.1078 0.0000 -173893.1078 -173893.1078 0.0000 16076.5036 -5016.7801 534946.2959 16076.5036 -5016.7801
ENERGY: 600 173.0040 655.7519 2875.5528 0.0000 -199972.4293 21568.7087 228.4242 0.0000 0.0000 -174470.9876 0.0000 -174470.9876 -174470.9876 0.0000 16158.4181 -4941.8985 534946.2959 16158.4181 -4941.8985
TCL: Setting parameter constraintScaling to 0.15625
TCL: Minimizing for 100 steps
ETITLE: TS BOND ANGLE DIHED IMPRP ELECT VDW BOUNDARY MISC KINETIC TOTAL TEMP POTENTIAL TOTAL3 TEMPAVG PRESSURE GPRESSURE VOLUME PRESSAVG GPRESSAVG
ENERGY: 600 173.0040 655.7519 2875.5528 0.0000 -199972.4293 21568.7087 114.2121 0.0000 0.0000 -174585.1997 0.0000 -174585.1997 -174585.1997 0.0000 16281.4423 -27009.1485 534946.2959 16281.4423 -27009.1485
ENERGY: 620 163.1987 635.0733 2851.5833 0.0000 -200172.8215 21549.2673 123.5679 0.0000 0.0000 -174850.1310 0.0000 -174850.1310 -174850.1310 0.0000 16208.3341 -4923.0921 534946.2959 16208.3341 -4923.0921
ENERGY: 640 279.9593 735.0905 2860.8816 0.0000 -200916.0886 21801.7733 150.6716 0.0000 0.0000 -175087.7123 0.0000 -175087.7123 -175087.7123 0.0000 16149.3552 -5059.4458 534946.2959 16149.3552 -5059.4458
ENERGY: 660 167.8348 648.8896 2845.2822 0.0000 -201001.9498 21815.2715 141.8391 0.0000 0.0000 -175382.8326 0.0000 -175382.8326 -175382.8326 0.0000 16298.2848 -4929.3724 534946.2959 16298.2848 -4929.3724
ENERGY: 680 156.8188 656.3071 2853.1889 0.0000 -201368.0382 21996.6561 142.0261 0.0000 0.0000 -175563.0413 0.0000 -175563.0413 -175563.0413 0.0000 16479.5481 -4813.9744 534946.2959 16479.5481 -4813.9744
ENERGY: 700 186.6828 669.8913 2851.7166 0.0000 -202166.9231 22343.8426 154.3902 0.0000 0.0000 -175960.3997 0.0000 -175960.3997 -175960.3997 0.0000 16674.7767 -4725.2714 534946.2959 16674.7767 -4725.2714
TCL: Setting parameter constraintScaling to 0.078125
TCL: Minimizing for 100 steps
ETITLE: TS BOND ANGLE DIHED IMPRP ELECT VDW BOUNDARY MISC KINETIC TOTAL TEMP POTENTIAL TOTAL3 TEMPAVG PRESSURE GPRESSURE VOLUME PRESSAVG GPRESSAVG
ENERGY: 700 186.6828 669.8913 2851.7166 0.0000 -202166.9231 22343.8426 77.1951 0.0000 0.0000 -176037.5948 0.0000 -176037.5948 -176037.5948 0.0000 16747.8048 -27069.3213 534946.2959 16747.8048 -27069.3213
ENERGY: 720 175.8750 645.7058 2835.7588 0.0000 -202357.1356 22358.4291 82.5488 0.0000 0.0000 -176258.8182 0.0000 -176258.8182 -176258.8182 0.0000 16598.4718 -4776.6159 534946.2959 16598.4718 -4776.6159
ENERGY: 740 168.1799 660.4697 2832.3116 0.0000 -202608.5084 22432.1234 87.7625 0.0000 0.0000 -176427.6613 0.0000 -176427.6613 -176427.6613 0.0000 16636.3073 -4785.1287 534946.2959 16636.3073 -4785.1287
ENERGY: 760 164.7890 664.3089 2833.2158 0.0000 -202934.5922 22558.1726 91.6441 0.0000 0.0000 -176622.4618 0.0000 -176622.4618 -176622.4618 0.0000 16694.2482 -4771.5188 534946.2959 16694.2482 -4771.5188
ENERGY: 780 248.5758 726.0767 2833.4108 0.0000 -203254.2177 22725.4517 92.3593 0.0000 0.0000 -176628.3434 0.0000 -176628.3434 -176628.3434 0.0000 16813.8399 -4706.2193 534946.2959 16813.8399 -4706.2193
ENERGY: 800 158.0422 652.1413 2841.3621 0.0000 -203696.4473 22947.5185 93.4682 0.0000 0.0000 -177003.9150 0.0000 -177003.9150 -177003.9150 0.0000 16974.6825 -4575.9943 534946.2959 16974.6825 -4575.9943
TCL: Setting parameter constraintScaling to 0.0390625
TCL: Minimizing for 100 steps
ETITLE: TS BOND ANGLE DIHED IMPRP ELECT VDW BOUNDARY MISC KINETIC TOTAL TEMP POTENTIAL TOTAL3 TEMPAVG PRESSURE GPRESSURE VOLUME PRESSAVG GPRESSAVG
ENERGY: 800 158.0422 652.1413 2841.3621 0.0000 -203696.4473 22947.5185 46.7341 0.0000 0.0000 -177050.6491 0.0000 -177050.6491 -177050.6491 0.0000 17015.9711 -27164.5708 534946.2959 17015.9711 -27164.5708
ENERGY: 820 246.1375 669.2456 2826.0146 0.0000 -203931.8508 22975.1805 50.0185 0.0000 0.0000 -177165.2541 0.0000 -177165.2541 -177165.2541 0.0000 16947.5533 -4648.8287 534946.2959 16947.5533 -4648.8287
ENERGY: 840 310.5883 685.3525 2821.4530 0.0000 -204227.5835 23103.1450 52.6415 0.0000 0.0000 -177254.4033 0.0000 -177254.4033 -177254.4033 0.0000 16974.8761 -4636.2893 534946.2959 16974.8761 -4636.2893
ENERGY: 860 191.8306 664.5811 2820.9058 0.0000 -204615.1574 23270.1252 54.6686 0.0000 0.0000 -177613.0461 0.0000 -177613.0461 -177613.0461 0.0000 17052.3540 -4590.8401 534946.2959 17052.3540 -4590.8401
ENERGY: 880 253.2108 683.5975 2825.6783 0.0000 -205211.9550 23588.5489 55.9130 0.0000 0.0000 -177805.0064 0.0000 -177805.0064 -177805.0064 0.0000 17257.9746 -4462.6648 534946.2959 17257.9746 -4462.6648
ENERGY: 900 160.6089 656.7169 2818.1751 0.0000 -205411.3071 23639.3182 57.7206 0.0000 0.0000 -178078.7673 0.0000 -178078.7673 -178078.7673 0.0000 17330.6825 -4425.1183 534946.2959 17330.6825 -4425.1183
TCL: Setting parameter constraintScaling to 0.01953125
TCL: Minimizing for 100 steps
ETITLE: TS BOND ANGLE DIHED IMPRP ELECT VDW BOUNDARY MISC KINETIC TOTAL TEMP POTENTIAL TOTAL3 TEMPAVG PRESSURE GPRESSURE VOLUME PRESSAVG GPRESSAVG
ENERGY: 900 160.6089 656.7169 2818.1751 0.0000 -205411.3071 23639.3182 28.8603 0.0000 0.0000 -178107.6276 0.0000 -178107.6276 -178107.6276 0.0000 17354.2739 -27233.4104 534946.2959 17354.2739 -27233.4104
ENERGY: 920 170.2634 653.2770 2810.8238 0.0000 -205598.1922 23700.8285 30.1791 0.0000 0.0000 -178232.8205 0.0000 -178232.8205 -178232.8205 0.0000 17348.3792 -4426.3338 534946.2959 17348.3792 -4426.3338
ENERGY: 940 167.9097 667.5996 2812.9928 0.0000 -205924.3490 23842.9398 31.9062 0.0000 0.0000 -178401.0008 0.0000 -178401.0008 -178401.0008 0.0000 17388.3391 -4420.7534 534946.2959 17388.3391 -4420.7534
ENERGY: 960 198.3020 659.5778 2811.5808 0.0000 -206098.4040 23921.1752 31.7634 0.0000 0.0000 -178476.0049 0.0000 -178476.0049 -178476.0049 0.0000 17442.1473 -4386.5824 534946.2959 17442.1473 -4386.5824
ENERGY: 980 166.5740 653.5257 2814.3701 0.0000 -206384.4385 24079.3086 32.1536 0.0000 0.0000 -178638.5065 0.0000 -178638.5065 -178638.5065 0.0000 17563.0134 -4300.4178 534946.2959 17563.0134 -4300.4178
ENERGY: 1000 168.3438 653.2660 2810.3787 0.0000 -206646.6875 24169.8673 33.5906 0.0000 0.0000 -178811.2410 0.0000 -178811.2410 -178811.2410 0.0000 17592.4960 -4302.4446 534946.2959 17592.4960 -4302.4446
TCL: Setting parameter constraintScaling to 0
TCL: Minimizing for 5000 steps
ETITLE: TS BOND ANGLE DIHED IMPRP ELECT VDW BOUNDARY MISC KINETIC TOTAL TEMP POTENTIAL TOTAL3 TEMPAVG PRESSURE GPRESSURE VOLUME PRESSAVG GPRESSAVG
ENERGY: 1000 168.3438 653.2660 2810.3787 0.0000 -206646.6876 24169.8673 0.0000 0.0000 0.0000 -178844.8316 0.0000 -178844.8316 -178844.8316 0.0000 17618.6485 -27261.7282 534946.2959 17618.6485 -27261.7282
ENERGY: 2000 165.3321 662.1668 2800.0014 0.0000 -215198.2002 27935.5358 0.0000 0.0000 0.0000 -183635.1640 0.0000 -183635.1640 -183635.1640 0.0000 19609.1278 -3242.2281 534946.2959 19609.1278 -3242.2281
ENERGY: 3000 165.4784 660.3748 2797.3574 0.0000 -217629.8561 28897.3725 0.0000 0.0000 0.0000 -185109.2730 0.0000 -185109.2730 -185109.2730 0.0000 20128.7679 -2964.5573 534946.2959 20128.7679 -2964.5573
ENERGY: 4000 166.2767 661.1261 2785.6332 0.0000 -218867.0247 29417.0851 0.0000 0.0000 0.0000 -185836.9036 0.0000 -185836.9036 -185836.9036 0.0000 20388.4886 -2837.4466 534946.2959 20388.4886 -2837.4466
ENERGY: 5000 171.5202 663.8384 2786.8468 0.0000 -219450.2104 29619.8044 0.0000 0.0000 0.0000 -186208.2006 0.0000 -186208.2006 -186208.2006 0.0000 20490.9546 -2796.3608 534946.2959 20490.9546 -2796.3608
ENERGY: 6000 166.6771 661.5967 2793.6161 0.0000 -219851.6865 29795.2657 0.0000 0.0000 0.0000 -186434.5309 0.0000 -186434.5309 -186434.5309 0.0000 20591.5642 -2731.2864 534946.2959 20591.5642 -2731.2864
