Info: SIMULATION PARAMETERS:
Info: TIMESTEP               1
Info: NUMBER OF STEPS        0
Info: STEPS PER CYCLE        10
Info: PERIODIC CELL BASIS 1  72.449 0 0
Info: PERIODIC CELL BASIS 2  0 93.247 0
Info: PERIODIC CELL BASIS 3  0 0 79.185
Info: PERIODIC CELL CENTER   -0.248 -0.156 -0.047
Info: WRAPPING WATERS AROUND PERIODIC BOUNDARIES ON OUTPUT.
Info: WRAPPING ALL CLUSTERS AROUND PERIODIC BOUNDARIES ON OUTPUT.
Info: FIRST LDB TIMESTEP     50
Info: LAST LDB TIMESTEP     -1
Info: HOM BACKGROUND SCALING 1
Info: PME BACKGROUND SCALING 1
Info: MIN ATOMS PER PATCH    40
Info: VELOCITY FILE          ../replicas/rep23/equilibration/eq1.vel
Info: CENTER OF MASS MOVING INITIALLY? NO
Info: DIELECTRIC             1
Info: EXCLUDE                SCALED ONE-FOUR
Info: 1-4 ELECTROSTATICS SCALED BY 0.833333
Info: MODIFIED 1-4 VDW PARAMETERS WILL BE USED
Info: DCD FILENAME           ../replicas/rep23/equilibration/eq2.dcd
Info: DCD FREQUENCY          5000
Info: DCD FIRST STEP         5000
Info: DCD FILE WILL CONTAIN UNIT CELL DATA
Info: XST FILENAME           ../replicas/rep23/equilibration/eq2.xst
Info: XST FREQUENCY          5000
Info: NO VELOCITY DCD OUTPUT
Info: NO FORCE DCD OUTPUT
Info: OUTPUT FILENAME        ../replicas/rep23/equilibration/eq2
Info: RESTART FILENAME       ../replicas/rep23/equilibration/eq2.restart
Info: RESTART FREQUENCY      5000
Info: BINARY RESTART FILES WILL BE USED
Info: SWITCHING ACTIVE
Info: SWITCHING ON           10
Info: SWITCHING OFF          12
Info: PAIRLIST DISTANCE      13.5
Info: PAIRLIST SHRINK RATE   0.01
Info: PAIRLIST GROW RATE     0.01
Info: PAIRLIST TRIGGER       0.3
Info: PAIRLISTS PER CYCLE    2
Info: PAIRLISTS ENABLED
Info: MARGIN                 0.48
Info: HYDROGEN GROUP CUTOFF  2.5
Info: PATCH DIMENSION        16.48
Info: ENERGY OUTPUT STEPS    500
Info: CROSSTERM ENERGY INCLUDED IN DIHEDRAL
Info: TIMING OUTPUT STEPS    5000
Info: PRESSURE OUTPUT STEPS  500
Info: HARMONIC CONSTRAINTS ACTIVE
Info: HARMONIC CONS EXP      2
Info: HARMONIC CONS SCALING  10
Info: LANGEVIN DYNAMICS ACTIVE
Info: LANGEVIN TEMPERATURE   300
Info: LANGEVIN USING BBK INTEGRATOR
Info: LANGEVIN DAMPING COEFFICIENT IS 5 INVERSE PS
Info: LANGEVIN DYNAMICS NOT APPLIED TO HYDROGENS
Info: BERENDSEN PRESSURE COUPLING ACTIVE
Info:     TARGET PRESSURE IS 1 BAR
Info:     COMPRESSIBILITY ESTIMATE IS 4.57e-05 BAR^(-1)
Info:     RELAXATION TIME IS 100 FS
Info:     APPLIED EVERY 2 STEPS
Info:     PRESSURE CONTROL IS GROUP-BASED
Info:       CELL FLUCTUATION IS ISOTROPIC
Info: PARTICLE MESH EWALD (PME) ACTIVE
Info: PME TOLERANCE               1e-06
Info: PME EWALD COEFFICIENT       0.257952
Info: PME INTERPOLATION ORDER     4
Info: PME GRID DIMENSIONS         80 96 80
Info: PME MAXIMUM GRID SPACING    1
Info: FULL ELECTROSTATIC EVALUATION FREQUENCY      2
Info: USING VERLET I (r-RESPA) MTS SCHEME.
Info: C1 SPLITTING OF LONG RANGE ELECTROSTATICS
Info: PLACING ATOMS IN PATCHES BY HYDROGEN GROUPS
Info: RIGID BONDS TO HYDROGEN : WATER
Info:         ERROR TOLERANCE : 1e-05
Info:          MAX ITERATIONS : 100
Info: RIGID WATER USING SETTLE ALGORITHM
Info: RANDOM NUMBER SEED     1503715562
Info: USE HYDROGEN BONDS?    NO
Info: Using AMBER format force field!
Info: AMBER PARM FILE        ../build/complex.top
Info: COORDINATE PDB         ../replicas/rep23/equilibration/eq1.coor
Info: Exclusions in PARM file will be ignored!
Info: SCNB (VDW SCALING)     2
Info: USING ARITHMETIC MEAN TO COMBINE L-J SIGMA PARAMETERS
Info: SUMMARY OF PARAMETERS:
Info: 71 BONDS
Info: 145 ANGLES
Info: 76 DIHEDRAL
Info: 0 IMPROPER
Info: 0 CROSSTERM
Info: 0 VDW
Info: 190 VDW_PAIRS
Info: 0 NBTHOLE_PAIRS
Info: STRUCTURE SUMMARY:
Info: 49394 ATOMS
Info: 49448 BONDS
Info: 8698 ANGLES
Info: 18780 DIHEDRALS
Info: 0 IMPROPERS
Info: 0 CROSSTERMS
Info: 0 EXCLUSIONS
Info: 2336 CONSTRAINTS
Info: 44667 RIGID BONDS
Info: 103515 DEGREES OF FREEDOM
Info: 17225 HYDROGEN GROUPS
Info: 4 ATOMS IN LARGEST HYDROGEN GROUP
Info: 17225 MIGRATION GROUPS
Info: 4 ATOMS IN LARGEST MIGRATION GROUP
Info: TOTAL MASS = 301478 amu
Info: TOTAL CHARGE = 1.00115e-05 e
Info: MASS DENSITY = 0.935846 g/cm^3
Info: ATOM DENSITY = 0.0923345 atoms/A^3
Info: ADDED 70656 IMPLICIT EXCLUSIONS
Info: NONBONDED TABLE R-SQUARED SPACING: 0.0625
Info: NONBONDED TABLE SIZE: 769 POINTS
Info: REMOVING COM VELOCITY 0.0203439 -0.00750421 0.00320022
TCL: Running for 5000 steps
ETITLE: TS BOND ANGLE DIHED IMPRP ELECT VDW BOUNDARY MISC KINETIC TOTAL TEMP POTENTIAL TOTAL3 TEMPAVG PRESSURE GPRESSURE VOLUME PRESSAVG GPRESSAVG
ENERGY: 0 394.8697 1215.2047 2924.7545 0.0000 -212823.9837 29719.7677 0.0000 0.0000 10134.8039 -168434.5831 98.5377 -178569.3870 -168424.8296 98.5377 -2278.2531 -2375.1403 534946.2959 -2278.2531 -2375.1403
ENERGY: 1000 1188.8299 1967.6456 3092.2735 0.0000 -193341.8116 26371.4818 762.7488 0.0000 24191.9800 -135766.8520 235.2115 -159958.8321 -135744.9874 218.8687 11.9868 -18.6295 522208.8925 -22.3655 -22.3596
ENERGY: 2000 1448.9704 2141.5500 3100.2947 0.0000 -184058.9505 23354.9424 771.2841 0.0000 27874.2545 -125367.6545 271.0131 -153241.9090 -125334.4644 264.0336 -62.7253 -5.1002 515416.1139 -13.4022 -13.4783
ENERGY: 3000 1507.7041 2217.6222 3179.2723 0.0000 -179270.7741 21544.6658 767.5349 0.0000 29724.3168 -120329.6580 289.0008 -150053.9748 -120282.3555 284.6387 -55.4328 -49.0098 511668.3247 -9.8621 -9.5071
ENERGY: 4000 1495.2975 2275.9575 3165.6052 0.0000 -177287.0146 21074.2862 804.1933 0.0000 30397.6763 -118073.9986 295.5476 -148471.6749 -118031.4573 293.1017 -7.9104 0.4415 508408.8658 -8.8971 -9.2516
ENERGY: 5000 1530.7376 2254.0623 3159.5182 0.0000 -175947.1005 20502.9233 802.9834 0.0000 30646.5584 -117050.3172 297.9674 -147696.8756 -117007.7088 296.8296 0.2661 8.4323 508160.9999 4.1631 4.1272
TCL: Setting parameter constraintScaling to 5.0
TCL: Running for 5000 steps
ETITLE: TS BOND ANGLE DIHED IMPRP ELECT VDW BOUNDARY MISC KINETIC TOTAL TEMP POTENTIAL TOTAL3 TEMPAVG PRESSURE GPRESSURE VOLUME PRESSAVG GPRESSAVG
ENERGY: 5000 1530.7376 2254.0623 3159.5182 0.0000 -175947.1005 20502.9233 401.4917 0.0000 30644.4939 -117453.8734 297.9474 -148098.3673 -117408.8361 297.9474 -82.8439 -74.9869 508160.9999 -82.8439 -74.9869
ENERGY: 6000 1593.5381 2315.4683 3183.5394 0.0000 -175960.0464 20459.5445 634.3242 0.0000 30763.8309 -117009.8010 299.1076 -147773.6319 -116964.6876 298.1045 38.4175 -9.9778 505045.9570 -20.8224 -21.1140
ENERGY: 7000 1587.8794 2330.1909 3162.3698 0.0000 -175462.4620 20131.3738 636.2217 0.0000 30676.1194 -116938.3069 298.2549 -147614.4263 -116890.9689 298.9568 52.5212 6.4275 502628.7702 1.8786 1.7565
ENERGY: 8000 1638.2961 2294.9549 3146.7293 0.0000 -174993.2748 19893.8926 644.6629 0.0000 30730.7233 -116644.0157 298.7857 -147374.7389 -116601.6957 300.0695 -142.9120 1.7727 502173.9677 -5.3779 -5.3494
ENERGY: 9000 1575.4867 2318.4988 3173.9020 0.0000 -175269.1170 19922.8088 642.3112 0.0000 31090.4647 -116545.6448 302.2834 -147636.1095 -116505.3882 300.9495 -9.2886 44.5564 502893.0668 8.8756 9.1600
ENERGY: 10000 1618.7774 2290.8515 3116.3574 0.0000 -175420.6536 20065.5695 672.6727 0.0000 30669.6673 -116986.7578 298.1921 -147656.4250 -116944.6150 299.2058 18.5954 17.3709 501277.1737 -9.3630 -9.3866
TCL: Setting parameter constraintScaling to 2.5
TCL: Running for 5000 steps
ETITLE: TS BOND ANGLE DIHED IMPRP ELECT VDW BOUNDARY MISC KINETIC TOTAL TEMP POTENTIAL TOTAL3 TEMPAVG PRESSURE GPRESSURE VOLUME PRESSAVG GPRESSAVG
ENERGY: 10000 1618.7774 2290.8515 3116.3574 0.0000 -175420.6536 20065.5695 336.3364 0.0000 30667.6162 -117325.1452 298.1722 -147992.7614 -117285.2000 298.1722 -49.9225 -43.9557 501277.1737 -49.9225 -43.9557
ENERGY: 11000 1554.3361 2352.0777 3196.0478 0.0000 -174707.2495 19464.9737 533.3524 0.0000 30829.7713 -116776.6904 299.7488 -147606.4618 -116727.9577 299.8693 -100.3796 -33.0043 502099.9642 11.3588 11.3872
ENERGY: 12000 1609.2658 2361.9954 3190.9108 0.0000 -175279.0970 19933.1598 514.1515 0.0000 30834.1316 -116835.4821 299.7912 -147669.6138 -116803.7330 299.6375 4.7926 -19.1683 500752.4665 -12.8899 -12.8985
ENERGY: 13000 1632.0571 2330.7749 3194.2391 0.0000 -175463.0058 20144.1442 506.3823 0.0000 30954.3607 -116701.0476 300.9601 -147655.4083 -116652.9869 300.6786 -55.4463 15.2141 501845.5024 12.2573 12.1627
ENERGY: 14000 1625.2674 2329.1960 3193.3220 0.0000 -175375.6011 20108.8406 528.5257 0.0000 30807.4472 -116783.0022 299.5317 -147590.4494 -116731.4511 300.3436 25.8503 1.0451 502714.0673 0.1405 -0.3140
ENERGY: 15000 1699.6556 2392.2046 3185.1663 0.0000 -176088.8625 20259.6173 524.3442 0.0000 30648.5911 -117379.2833 297.9872 -148027.8744 -117342.6412 298.5385 -3.3879 12.1821 501002.1155 -15.8419 -16.1988
TCL: Setting parameter constraintScaling to 1.25
TCL: Running for 5000 steps
ETITLE: TS BOND ANGLE DIHED IMPRP ELECT VDW BOUNDARY MISC KINETIC TOTAL TEMP POTENTIAL TOTAL3 TEMPAVG PRESSURE GPRESSURE VOLUME PRESSAVG GPRESSAVG
ENERGY: 15000 1699.6556 2392.2046 3185.1663 0.0000 -176088.8625 20259.6173 262.1721 0.0000 30646.5344 -117643.5121 297.9672 -148290.0465 -117603.2849 297.9672 -48.4215 -42.2683 501002.1155 -48.4215 -42.2683
ENERGY: 16000 1588.9854 2363.6548 3173.0484 0.0000 -175836.7279 20130.1645 403.9556 0.0000 30779.1344 -117397.7849 299.2564 -148176.9193 -117358.0003 299.8640 56.0874 35.3377 500190.8040 -0.2636 -0.4992
ENERGY: 17000 1622.9570 2400.5848 3210.7665 0.0000 -175851.2353 20246.2468 401.1057 0.0000 30728.1877 -117241.3867 298.7611 -147969.5744 -117191.4626 299.7386 -40.7072 50.3370 499569.5408 2.3979 1.8377
ENERGY: 18000 1630.2542 2384.1953 3182.3028 0.0000 -175329.1844 19843.7424 390.8709 0.0000 30613.9965 -117283.8223 297.6508 -147897.8187 -117236.6565 299.7648 -33.2004 7.0924 500517.3561 14.6953 14.6512
ENERGY: 19000 1647.8441 2367.1581 3191.1321 0.0000 -175317.3977 20078.7835 404.4244 0.0000 30641.1844 -116986.8712 297.9152 -147628.0556 -116948.5173 299.2730 -16.2287 -6.8569 499726.1682 2.6756 2.8893
ENERGY: 20000 1637.7833 2361.2268 3190.8165 0.0000 -176035.5016 20212.6487 420.1327 0.0000 30743.0763 -117469.8173 298.9059 -148212.8936 -117423.8221 299.5435 -0.8359 -31.9425 499730.8030 -5.2975 -5.5459
TCL: Setting parameter constraintScaling to 0.625
TCL: Running for 5000 steps
ETITLE: TS BOND ANGLE DIHED IMPRP ELECT VDW BOUNDARY MISC KINETIC TOTAL TEMP POTENTIAL TOTAL3 TEMPAVG PRESSURE GPRESSURE VOLUME PRESSAVG GPRESSAVG
ENERGY: 20000 1637.7833 2361.2268 3190.8165 0.0000 -176035.5016 20212.6487 210.0663 0.0000 30741.0514 -117681.9086 298.8862 -148422.9600 -117639.9207 298.8862 -18.4590 -50.1003 499730.8030 -18.4590 -50.1003
ENERGY: 21000 1658.5678 2442.8496 3190.1655 0.0000 -175766.1346 20239.7609 307.6034 0.0000 30689.7136 -117237.4739 298.3870 -147927.1875 -117195.5646 299.4548 -22.2812 24.0761 498791.9752 -4.7341 -5.2207
ENERGY: 22000 1648.3343 2404.7446 3207.4222 0.0000 -175951.6246 20084.6794 341.4785 0.0000 30764.3585 -117500.6071 299.1128 -148264.9656 -117462.8206 298.8872 -74.0912 -15.0088 497834.3548 3.2291 3.0717
ENERGY: 23000 1671.0390 2305.2846 3195.3174 0.0000 -175993.0018 20063.3249 322.0777 0.0000 31049.9508 -117386.0075 301.8895 -148435.9582 -117329.4262 299.3429 -138.4747 -88.2788 498076.2825 -3.2825 -2.9606
ENERGY: 24000 1652.6949 2438.3163 3190.9305 0.0000 -175436.5567 20022.1864 312.1748 0.0000 30847.1151 -116973.1387 299.9174 -147820.2538 -116932.8283 300.7846 -2.5892 73.5952 497623.9692 -9.3528 -8.8476
ENERGY: 25000 1617.9264 2396.1198 3191.1581 0.0000 -175913.0332 20241.9276 332.6525 0.0000 31005.6332 -117127.6156 301.4586 -148133.2488 -117079.4370 300.7491 52.1216 104.9276 498966.6852 4.9593 4.8883
TCL: Setting parameter constraintScaling to 0.3125
TCL: Running for 5000 steps
ETITLE: TS BOND ANGLE DIHED IMPRP ELECT VDW BOUNDARY MISC KINETIC TOTAL TEMP POTENTIAL TOTAL3 TEMPAVG PRESSURE GPRESSURE VOLUME PRESSAVG GPRESSAVG
ENERGY: 25000 1617.9264 2396.1198 3191.1581 0.0000 -175913.0332 20241.9276 166.3262 0.0000 31003.5843 -117295.9908 301.4387 -148299.5750 -117250.2667 301.4387 74.5797 114.4833 498966.6852 74.5797 114.4833
ENERGY: 26000 1717.7503 2406.7366 3205.7077 0.0000 -175617.5106 20258.6955 252.5844 0.0000 30871.6998 -116904.3363 300.1564 -147776.0361 -116860.9207 301.6229 64.7129 86.5438 498271.0099 -4.6451 -3.9920
ENERGY: 27000 1700.6288 2433.2198 3182.9619 0.0000 -175835.8497 20049.5055 239.7761 0.0000 30829.0027 -117400.7549 299.7413 -148229.7576 -117353.6951 300.0243 -28.7268 11.5948 497974.2697 4.7582 4.9351
ENERGY: 28000 1633.3628 2398.7553 3201.6088 0.0000 -176258.0633 20464.1938 258.9649 0.0000 31044.7643 -117256.4134 301.8391 -148301.1777 -117210.0512 299.3307 -37.7493 14.2267 499683.5361 5.5849 5.7740
ENERGY: 29000 1604.4888 2349.9217 3204.6013 0.0000 -176160.7972 20193.8550 248.2646 0.0000 30732.9660 -117826.6998 298.8076 -148559.6658 -117795.6515 298.4339 -49.0158 11.6533 498793.8211 1.2369 0.8652
ENERGY: 30000 1617.3080 2421.0833 3218.0239 0.0000 -175797.0352 19997.0211 246.1934 0.0000 30499.7642 -117797.6414 296.5402 -148297.4056 -117746.2551 297.6018 -11.0347 49.2338 495116.4032 -10.8278 -11.0803
TCL: Setting parameter constraintScaling to 0.15625
TCL: Running for 5000 steps
ETITLE: TS BOND ANGLE DIHED IMPRP ELECT VDW BOUNDARY MISC KINETIC TOTAL TEMP POTENTIAL TOTAL3 TEMPAVG PRESSURE GPRESSURE VOLUME PRESSAVG GPRESSAVG
ENERGY: 30000 1617.3080 2421.0833 3218.0239 0.0000 -175797.0352 19997.0211 123.0967 0.0000 30497.6975 -117922.8048 296.5201 -148420.5023 -117882.0062 296.5201 -53.1268 2.2238 495116.4032 -53.1268 2.2238
ENERGY: 31000 1629.2231 2400.3870 3197.1634 0.0000 -176049.7946 20090.1483 188.0670 0.0000 30649.0749 -117895.7309 297.9919 -148544.8058 -117839.7539 297.7784 -89.3514 94.0085 495628.1273 -0.1037 0.1795
ENERGY: 32000 1622.1277 2357.3136 3204.4741 0.0000 -175664.0818 19888.8374 196.6097 0.0000 30799.9937 -117594.7255 299.4592 -148394.7192 -117553.7040 299.6489 26.0126 10.1000 496433.0748 -2.3842 -3.2511
ENERGY: 33000 1645.4579 2440.3511 3163.9015 0.0000 -176239.1841 20305.8999 193.0784 0.0000 30618.4653 -117872.0302 297.6943 -148490.4954 -117829.1852 298.8899 -22.1871 29.3003 496960.1053 3.9385 3.8734
ENERGY: 34000 1628.7593 2376.2594 3209.8358 0.0000 -176029.6106 20022.9922 201.6135 0.0000 30873.1768 -117716.9737 300.1708 -148590.1505 -117672.1258 299.3831 -126.2931 -10.6397 496823.8577 3.0922 3.0539
ENERGY: 35000 1661.6246 2414.7020 3185.2928 0.0000 -175483.3865 19785.3852 210.2734 0.0000 30697.0781 -117529.0304 298.4586 -148226.1086 -117482.8250 299.6907 -68.6801 -9.3144 497105.2932 7.3445 7.2875
TCL: Setting parameter constraintScaling to 0.078125
TCL: Running for 5000 steps
ETITLE: TS BOND ANGLE DIHED IMPRP ELECT VDW BOUNDARY MISC KINETIC TOTAL TEMP POTENTIAL TOTAL3 TEMPAVG PRESSURE GPRESSURE VOLUME PRESSAVG GPRESSAVG
ENERGY: 35000 1661.6246 2414.7020 3185.2928 0.0000 -175483.3865 19785.3852 105.1367 0.0000 30695.0327 -117636.2125 298.4387 -148331.2452 -117596.0183 298.4387 -107.2478 -49.6366 497105.2932 -107.2478 -49.6366
ENERGY: 36000 1650.7417 2444.9482 3181.6105 0.0000 -175163.2512 19878.3277 131.1210 0.0000 30851.2971 -117025.2049 299.9581 -147876.5021 -116982.7698 299.8028 -24.1839 -43.4889 499227.8939 7.2968 7.7058
ENERGY: 37000 1656.6828 2414.2902 3191.0529 0.0000 -175622.9820 20088.9483 149.1838 0.0000 30908.1322 -117214.6919 300.5106 -148122.8241 -117177.8241 301.7116 33.3583 89.1505 498469.2055 3.7005 3.6504
ENERGY: 38000 1619.7364 2394.8130 3207.9795 0.0000 -175775.9933 20022.4302 159.4660 0.0000 30848.1020 -117523.4662 299.9270 -148371.5682 -117480.5039 300.5118 -71.5412 -26.7340 495933.9244 -12.3222 -12.6381
ENERGY: 39000 1638.4298 2339.9538 3163.7489 0.0000 -176014.2424 19993.0480 162.7347 0.0000 30895.7477 -117820.5795 300.3902 -148716.3271 -117775.7242 298.3170 4.9237 -2.9797 496062.1299 -2.9506 -3.0211
ENERGY: 40000 1640.2280 2448.7349 3142.9084 0.0000 -176602.4846 20374.9902 175.5367 0.0000 30825.9812 -117994.1051 299.7119 -148820.0863 -117947.9077 298.2237 -36.5108 0.8628 496932.2724 8.5391 7.6819
TCL: Setting parameter constraintScaling to 0.0390625
TCL: Running for 5000 steps
ETITLE: TS BOND ANGLE DIHED IMPRP ELECT VDW BOUNDARY MISC KINETIC TOTAL TEMP POTENTIAL TOTAL3 TEMPAVG PRESSURE GPRESSURE VOLUME PRESSAVG GPRESSAVG
ENERGY: 40000 1640.2280 2448.7349 3142.9084 0.0000 -176602.4846 20374.9902 87.7684 0.0000 30823.9468 -118083.9079 299.6921 -148907.8547 -118044.5300 299.6921 -13.8790 16.9344 496932.2724 -13.8790 16.9344
ENERGY: 41000 1671.5842 2379.0234 3193.8176 0.0000 -175818.6013 20022.7701 115.5143 0.0000 30748.1150 -117687.7767 298.9548 -148435.8917 -117634.3266 298.8987 -130.2455 -69.2782 496257.9655 -3.6895 -3.3616
ENERGY: 42000 1628.2147 2409.4873 3212.4115 0.0000 -176025.0703 20161.9347 117.4428 0.0000 30814.9749 -117680.6045 299.6049 -148495.5794 -117629.1109 299.1855 -2.1085 35.4658 496981.6474 8.5931 8.0323
ENERGY: 43000 1663.2563 2376.8854 3180.0366 0.0000 -176090.6135 20217.4645 120.4022 0.0000 30548.1910 -117984.3776 297.0110 -148532.5685 -117947.5794 298.8385 32.3078 117.7204 496231.5919 6.3294 5.9222
ENERGY: 44000 1714.3066 2377.4646 3212.1070 0.0000 -176186.3739 20170.3584 124.7224 0.0000 30603.9728 -117983.4421 297.5534 -148587.4149 -117931.0386 298.6509 -27.4129 34.0577 495083.1889 -6.2931 -6.2676
ENERGY: 45000 1726.8880 2405.2987 3215.8021 0.0000 -176263.6989 20071.3530 129.3122 0.0000 30847.3089 -117867.7361 299.9193 -148715.0450 -117814.1639 299.3466 37.1008 52.4358 494654.7504 -3.0591 -3.0446
TCL: Setting parameter constraintScaling to 0.01953125
TCL: Running for 5000 steps
ETITLE: TS BOND ANGLE DIHED IMPRP ELECT VDW BOUNDARY MISC KINETIC TOTAL TEMP POTENTIAL TOTAL3 TEMPAVG PRESSURE GPRESSURE VOLUME PRESSAVG GPRESSAVG
ENERGY: 45000 1726.8880 2405.2987 3215.8021 0.0000 -176263.6989 20071.3530 64.6561 0.0000 30845.2712 -117934.4298 299.8995 -148779.7011 -117894.5666 299.8995 42.6524 53.9927 494654.7504 42.6524 53.9927
ENERGY: 46000 1572.5689 2439.5193 3217.0822 0.0000 -175718.9814 19847.1805 75.0322 0.0000 30924.8297 -117642.7686 300.6730 -148567.5983 -117598.1341 299.7869 25.7922 29.8859 494717.1128 5.4524 5.7991
ENERGY: 47000 1604.1878 2436.4785 3172.6316 0.0000 -175347.5339 19784.1352 86.1963 0.0000 30588.4254 -117675.4791 297.4022 -148263.9045 -117625.7810 299.7048 -21.8278 -8.4969 496118.5309 6.7199 7.2057
ENERGY: 48000 1630.8479 2414.9243 3215.6515 0.0000 -175727.7964 20036.2694 95.7809 0.0000 30851.0910 -117483.2314 299.9560 -148334.3224 -117441.4900 300.1595 -37.1705 42.3117 497480.5891 21.7671 21.3908
ENERGY: 49000 1651.8654 2392.1491 3208.2859 0.0000 -175944.9214 20038.0851 86.5980 0.0000 30909.5755 -117658.3625 300.5247 -148567.9379 -117621.3355 299.6736 29.6125 64.1028 496437.0407 -1.1840 -1.5573
ENERGY: 50000 1658.5716 2436.2458 3241.4043 0.0000 -175923.7262 20073.8771 91.8343 0.0000 30925.5555 -117496.2375 300.6800 -148421.7930 -117448.2354 300.3249 -96.6471 -44.6169 498263.0176 -4.3598 -4.0055
TCL: Setting parameter constraintScaling to 0
TCL: Running for 5000 steps
ETITLE: TS BOND ANGLE DIHED IMPRP ELECT VDW BOUNDARY MISC KINETIC TOTAL TEMP POTENTIAL TOTAL3 TEMPAVG PRESSURE GPRESSURE VOLUME PRESSAVG GPRESSAVG
ENERGY: 50000 1658.5716 2436.2458 3241.4043 0.0000 -175923.7262 20073.8771 0.0000 0.0000 30923.4920 -117590.1354 300.6600 -148513.6273 -117548.4326 300.6600 -113.8380 -53.1156 498263.0176 -113.8380 -53.1156
ENERGY: 51000 1650.5346 2454.6861 3243.9351 0.0000 -175907.1410 20178.2263 0.0000 0.0000 30709.0620 -117670.6969 298.5751 -148379.7590 -117635.6497 299.8753 -32.5335 -11.5931 497812.1836 -5.5874 -6.0612
ENERGY: 52000 1638.7825 2403.4153 3206.7645 0.0000 -175681.9749 19880.5073 0.0000 0.0000 30839.3034 -117713.2018 299.8414 -148552.5052 -117663.7612 300.0971 -4.4227 -10.9280 496802.0701 -2.3875 -2.5034
ENERGY: 53000 1662.2338 2451.7348 3200.4309 0.0000 -175808.6567 19983.0113 0.0000 0.0000 31034.8064 -117476.4394 301.7423 -148511.2458 -117426.4704 300.3390 51.1875 101.6461 497358.6589 10.0361 9.8900
ENERGY: 54000 1647.5673 2429.6881 3190.3384 0.0000 -176177.5137 20067.0121 0.0000 0.0000 30805.9638 -118036.9439 299.5173 -148842.9077 -117998.1905 299.6816 -107.1338 -91.2077 496600.6529 7.9207 8.1948
ENERGY: 55000 1684.8090 2450.0081 3226.1413 0.0000 -176014.6625 20009.4367 0.0000 0.0000 30877.5430 -117766.7242 300.2132 -148644.2673 -117721.3533 300.0255 -77.3106 -38.6197 496474.9276 -3.3932 -3.0333
