Info: SIMULATION PARAMETERS:
Info: TIMESTEP               2
Info: NUMBER OF STEPS        0
Info: STEPS PER CYCLE        10
Info: PERIODIC CELL BASIS 1  72.449 0 0
Info: PERIODIC CELL BASIS 2  0 93.247 0
Info: PERIODIC CELL BASIS 3  0 0 79.185
Info: PERIODIC CELL CENTER   -0.248 -0.156 -0.047
Info: WRAPPING WATERS AROUND PERIODIC BOUNDARIES ON OUTPUT.
Info: WRAPPING ALL CLUSTERS AROUND PERIODIC BOUNDARIES ON OUTPUT.
Info: FIRST LDB TIMESTEP     50
Info: LAST LDB TIMESTEP     -1
Info: HOM BACKGROUND SCALING 1
Info: PME BACKGROUND SCALING 1
Info: MIN ATOMS PER PATCH    40
Info: INITIAL TEMPERATURE    0
Info: CENTER OF MASS MOVING INITIALLY? NO
Info: DIELECTRIC             1
Info: EXCLUDE                SCALED ONE-FOUR
Info: 1-4 ELECTROSTATICS SCALED BY 0.833333
Info: MODIFIED 1-4 VDW PARAMETERS WILL BE USED
Info: NO DCD TRAJECTORY OUTPUT
Info: NO EXTENDED SYSTEM TRAJECTORY OUTPUT
Info: NO VELOCITY DCD OUTPUT
Info: NO FORCE DCD OUTPUT
Info: OUTPUT FILENAME        ../replicas/rep16/equilibration/eq0
Info: NO RESTART FILE
Info: SWITCHING ACTIVE
Info: SWITCHING ON           10
Info: SWITCHING OFF          12
Info: PAIRLIST DISTANCE      13.5
Info: PAIRLIST SHRINK RATE   0.01
Info: PAIRLIST GROW RATE     0.01
Info: PAIRLIST TRIGGER       0.3
Info: PAIRLISTS PER CYCLE    2
Info: PAIRLISTS ENABLED
Info: MARGIN                 0
Info: HYDROGEN GROUP CUTOFF  2.5
Info: PATCH DIMENSION        16
Info: ENERGY OUTPUT STEPS    500
Info: CROSSTERM ENERGY INCLUDED IN DIHEDRAL
Info: TIMING OUTPUT STEPS    5000
Info: PRESSURE OUTPUT STEPS  500
Info: HARMONIC CONSTRAINTS ACTIVE
Info: HARMONIC CONS EXP      2
Info: HARMONIC CONS SCALING  10
Info: CONJUGATE GRADIENT MINIMIZATION ACTIVE
Info: LINE MINIMIZATION GOAL = 0.001
Info: BABY STEP SIZE = 0.01
Info: TINY STEP SIZE = 1e-06
Info: PARTICLE MESH EWALD (PME) ACTIVE
Info: PME TOLERANCE               1e-06
Info: PME EWALD COEFFICIENT       0.257952
Info: PME INTERPOLATION ORDER     4
Info: PME GRID DIMENSIONS         80 96 80
Info: PME MAXIMUM GRID SPACING    1
Info: FULL ELECTROSTATIC EVALUATION FREQUENCY      2
Info: USING VERLET I (r-RESPA) MTS SCHEME.
Info: C1 SPLITTING OF LONG RANGE ELECTROSTATICS
Info: PLACING ATOMS IN PATCHES BY HYDROGEN GROUPS
Info: RIGID BONDS TO HYDROGEN : ALL
Info:         ERROR TOLERANCE : 1e-05
Info:          MAX ITERATIONS : 100
Info: RIGID WATER USING SETTLE ALGORITHM
Info: RANDOM NUMBER SEED     1503708751
Info: USE HYDROGEN BONDS?    NO
Info: Using AMBER format force field!
Info: AMBER PARM FILE        ../build/complex.top
Info: COORDINATE PDB         ../build/complex.pdb
Info: Exclusions in PARM file will be ignored!
Info: SCNB (VDW SCALING)     2
Info: USING ARITHMETIC MEAN TO COMBINE L-J SIGMA PARAMETERS
Info: SUMMARY OF PARAMETERS:
Info: 71 BONDS
Info: 145 ANGLES
Info:   145 HARMONIC
Info:   0 COSINE-BASED
Info: 76 DIHEDRAL
Info: 0 IMPROPER
Info: 0 CROSSTERM
Info: 0 VDW
Info: 190 VDW_PAIRS
Info: 0 NBTHOLE_PAIRS
Info: STRUCTURE SUMMARY:
Info: 49394 ATOMS
Info: 49448 BONDS
Info: 8698 ANGLES
Info: 18780 DIHEDRALS
Info: 0 IMPROPERS
Info: 0 CROSSTERMS
Info: 0 EXCLUSIONS
Info: 2336 CONSTRAINTS
Info: 47058 RIGID BONDS
Info: 101124 DEGREES OF FREEDOM
Info: 17225 HYDROGEN GROUPS
Info: 4 ATOMS IN LARGEST HYDROGEN GROUP
Info: 17225 MIGRATION GROUPS
Info: 4 ATOMS IN LARGEST MIGRATION GROUP
Info: TOTAL MASS = 301478 amu
Info: TOTAL CHARGE = 1.00115e-05 e
Info: MASS DENSITY = 0.935846 g/cm^3
Info: ATOM DENSITY = 0.0923345 atoms/A^3
Info: ADDED 70656 IMPLICIT EXCLUSIONS
Info: NONBONDED TABLE R-SQUARED SPACING: 0.0625
Info: NONBONDED TABLE SIZE: 769 POINTS
Info: REMOVING COM VELOCITY 0 0 0
TCL: Minimizing for 100 steps
ETITLE: TS BOND ANGLE DIHED IMPRP ELECT VDW BOUNDARY MISC KINETIC TOTAL TEMP POTENTIAL TOTAL3 TEMPAVG PRESSURE GPRESSURE VOLUME PRESSAVG GPRESSAVG
ENERGY: 0 155.4176 1012.2698 2855.7272 0.0000 -154496.7910 207729.2052 0.0468 0.0000 0.0000 57255.8756 0.0000 57255.8756 57255.8756 0.0000 116350.2532 86546.1670 534946.2959 116350.2532 86546.1670
ENERGY: 20 304.7552 935.7912 2893.4663 0.0000 -158672.9406 17936.6594 143.9454 0.0000 0.0000 -136458.3231 0.0000 -136458.3231 -136458.3231 0.0000 16523.9387 -239.4559 534946.2959 16523.9387 -239.4559
ENERGY: 40 198.7445 799.5728 2896.9273 0.0000 -162811.4530 16417.9537 221.3030 0.0000 0.0000 -142276.9517 0.0000 -142276.9517 -142276.9517 0.0000 15011.2703 -2135.4698 534946.2959 15011.2703 -2135.4698
ENERGY: 60 130.5283 715.3440 2898.2166 0.0000 -167496.1568 15446.7539 315.2796 0.0000 0.0000 -147990.0344 0.0000 -147990.0344 -147990.0344 0.0000 13793.8837 -3799.3986 534946.2959 13793.8837 -3799.3986
ENERGY: 80 431.2729 765.6307 2904.3786 0.0000 -169937.5304 15121.1522 372.0122 0.0000 0.0000 -150343.0838 0.0000 -150343.0838 -150343.0838 0.0000 13270.3306 -4577.2451 534946.2959 13270.3306 -4577.2451
ENERGY: 100 119.3857 710.0600 2905.2590 0.0000 -171259.7128 14991.7870 387.3613 0.0000 0.0000 -152145.8599 0.0000 -152145.8599 -152145.8599 0.0000 13056.2654 -4908.1723 534946.2959 13056.2654 -4908.1723
TCL: Setting parameter constraintScaling to 5.0
TCL: Minimizing for 100 steps
ETITLE: TS BOND ANGLE DIHED IMPRP ELECT VDW BOUNDARY MISC KINETIC TOTAL TEMP POTENTIAL TOTAL3 TEMPAVG PRESSURE GPRESSURE VOLUME PRESSAVG GPRESSAVG
ENERGY: 100 119.3857 710.0600 2905.2590 0.0000 -171259.7128 14991.7870 193.6806 0.0000 0.0000 -152339.5405 0.0000 -152339.5405 -152339.5405 0.0000 13672.7715 -23021.8185 534946.2959 13672.7715 -23021.8185
ENERGY: 120 108.8839 687.5844 2912.9267 0.0000 -172865.8798 14798.2708 281.1916 0.0000 0.0000 -154077.0224 0.0000 -154077.0224 -154077.0224 0.0000 13218.2553 -4906.0157 534946.2959 13218.2553 -4906.0157
ENERGY: 140 309.4386 708.8688 2913.8025 0.0000 -174236.6541 14731.4824 326.6390 0.0000 0.0000 -155246.4229 0.0000 -155246.4229 -155246.4229 0.0000 12971.5285 -5303.2394 534946.2959 12971.5285 -5303.2394
ENERGY: 160 265.2036 683.1052 2923.1721 0.0000 -176275.0863 14757.3212 382.8801 0.0000 0.0000 -157263.4040 0.0000 -157263.4040 -157263.4040 0.0000 12740.9908 -5743.1826 534946.2959 12740.9908 -5743.1826
ENERGY: 180 268.9133 744.0951 2928.5662 0.0000 -178995.1665 15023.4743 473.2900 0.0000 0.0000 -159556.8276 0.0000 -159556.8276 -159556.8276 0.0000 12521.6178 -6224.0992 534946.2959 12521.6178 -6224.0992
ENERGY: 200 238.8775 694.0932 2941.3614 0.0000 -181556.1486 15587.0249 546.2642 0.0000 0.0000 -161548.5274 0.0000 -161548.5274 -161548.5274 0.0000 12582.6432 -6425.1882 534946.2959 12582.6432 -6425.1882
TCL: Setting parameter constraintScaling to 2.5
TCL: Minimizing for 100 steps
ETITLE: TS BOND ANGLE DIHED IMPRP ELECT VDW BOUNDARY MISC KINETIC TOTAL TEMP POTENTIAL TOTAL3 TEMPAVG PRESSURE GPRESSURE VOLUME PRESSAVG GPRESSAVG
ENERGY: 200 238.8775 694.0932 2941.3614 0.0000 -181556.1486 15587.0249 273.1321 0.0000 0.0000 -161821.6595 0.0000 -161821.6595 -161821.6595 0.0000 13229.5479 -25655.9835 534946.2959 13229.5479 -25655.9835
ENERGY: 220 246.7094 677.8034 2933.0074 0.0000 -182076.8625 15471.7864 337.7173 0.0000 0.0000 -162409.8386 0.0000 -162409.8386 -162409.8386 0.0000 12971.3413 -6091.1491 534946.2959 12971.3413 -6091.1491
ENERGY: 240 115.5979 674.4923 2928.4530 0.0000 -182573.0732 15510.9858 345.0279 0.0000 0.0000 -162998.5162 0.0000 -162998.5162 -162998.5162 0.0000 13036.6019 -6117.6003 534946.2959 13036.6019 -6117.6003
ENERGY: 260 144.9410 676.5020 2920.8581 0.0000 -184117.3101 15842.1944 391.7613 0.0000 0.0000 -164141.0533 0.0000 -164141.0533 -164141.0533 0.0000 13045.2559 -6257.9501 534946.2959 13045.2559 -6257.9501
ENERGY: 280 172.1560 701.3463 2917.6173 0.0000 -185430.5783 16231.8746 455.1509 0.0000 0.0000 -164952.4333 0.0000 -164952.4333 -164952.4333 0.0000 13144.2307 -6338.9476 534946.2959 13144.2307 -6338.9476
ENERGY: 300 126.6640 639.5713 2916.2564 0.0000 -186097.1543 16446.8925 481.3960 0.0000 0.0000 -165486.3741 0.0000 -165486.3741 -165486.3741 0.0000 13208.2548 -6342.6193 534946.2959 13208.2548 -6342.6193
TCL: Setting parameter constraintScaling to 1.25
TCL: Minimizing for 100 steps
ETITLE: TS BOND ANGLE DIHED IMPRP ELECT VDW BOUNDARY MISC KINETIC TOTAL TEMP POTENTIAL TOTAL3 TEMPAVG PRESSURE GPRESSURE VOLUME PRESSAVG GPRESSAVG
ENERGY: 300 126.6640 639.5713 2916.2564 0.0000 -186097.1543 16446.8925 240.6980 0.0000 0.0000 -165727.0721 0.0000 -165727.0721 -165727.0721 0.0000 13656.6216 -26352.8815 534946.2959 13656.6216 -26352.8815
ENERGY: 320 132.0876 624.5910 2911.1464 0.0000 -186668.3455 16580.7929 272.7799 0.0000 0.0000 -166146.9477 0.0000 -166146.9477 -166146.9477 0.0000 13630.0728 -5974.1357 534946.2959 13630.0728 -5974.1357
ENERGY: 340 150.5384 624.6767 2910.6407 0.0000 -187379.7355 16812.1649 296.0694 0.0000 0.0000 -166585.6454 0.0000 -166585.6454 -166585.6454 0.0000 13648.8040 -6010.7057 534946.2959 13648.8040 -6010.7057
ENERGY: 360 170.3563 675.6209 2908.5127 0.0000 -188868.8676 17317.2679 356.8953 0.0000 0.0000 -167440.2146 0.0000 -167440.2146 -167440.2146 0.0000 13858.8641 -6007.7548 534946.2959 13858.8641 -6007.7548
ENERGY: 380 175.0982 658.1091 2901.7297 0.0000 -189871.0595 17709.8470 380.4241 0.0000 0.0000 -168045.8513 0.0000 -168045.8513 -168045.8513 0.0000 13968.0984 -5988.4732 534946.2959 13968.0984 -5988.4732
ENERGY: 400 139.5700 633.5373 2899.7843 0.0000 -190452.7783 17920.2549 394.1099 0.0000 0.0000 -168465.5220 0.0000 -168465.5220 -168465.5220 0.0000 14118.8326 -5923.3627 534946.2959 14118.8326 -5923.3627
TCL: Setting parameter constraintScaling to 0.625
TCL: Minimizing for 100 steps
ETITLE: TS BOND ANGLE DIHED IMPRP ELECT VDW BOUNDARY MISC KINETIC TOTAL TEMP POTENTIAL TOTAL3 TEMPAVG PRESSURE GPRESSURE VOLUME PRESSAVG GPRESSAVG
ENERGY: 400 139.5700 633.5373 2899.7843 0.0000 -190452.7783 17920.2549 197.0549 0.0000 0.0000 -168662.5769 0.0000 -168662.5769 -168662.5769 0.0000 14416.7236 -26610.1673 534946.2959 14416.7236 -26610.1673
ENERGY: 420 148.1403 626.7298 2895.4509 0.0000 -190846.2517 18011.4571 217.9723 0.0000 0.0000 -168946.5012 0.0000 -168946.5012 -168946.5012 0.0000 14349.6940 -5719.2605 534946.2959 14349.6940 -5719.2605
ENERGY: 440 199.4002 639.4413 2901.3423 0.0000 -191461.0864 18206.3445 238.1783 0.0000 0.0000 -169276.3798 0.0000 -169276.3798 -169276.3798 0.0000 14327.0659 -5780.2001 534946.2959 14327.0659 -5780.2001
ENERGY: 460 171.5760 649.4384 2888.2812 0.0000 -192279.1986 18486.8856 261.7605 0.0000 0.0000 -169821.2569 0.0000 -169821.2569 -169821.2569 0.0000 14552.5886 -5702.5653 534946.2959 14552.5886 -5702.5653
ENERGY: 480 142.2336 640.2038 2881.0897 0.0000 -193370.9192 18909.6148 292.2400 0.0000 0.0000 -170505.5373 0.0000 -170505.5373 -170505.5373 0.0000 14717.5811 -5655.2465 534946.2959 14717.5811 -5655.2465
ENERGY: 500 188.8723 651.4131 2886.0933 0.0000 -193775.2496 19069.7514 299.9579 0.0000 0.0000 -170679.1615 0.0000 -170679.1615 -170679.1615 0.0000 14706.3852 -5672.8888 534946.2959 14706.3852 -5672.8888
TCL: Setting parameter constraintScaling to 0.3125
TCL: Minimizing for 100 steps
ETITLE: TS BOND ANGLE DIHED IMPRP ELECT VDW BOUNDARY MISC KINETIC TOTAL TEMP POTENTIAL TOTAL3 TEMPAVG PRESSURE GPRESSURE VOLUME PRESSAVG GPRESSAVG
ENERGY: 500 188.8723 651.4131 2886.0933 0.0000 -193775.2496 19069.7514 149.9790 0.0000 0.0000 -170829.1405 0.0000 -170829.1405 -170829.1405 0.0000 14899.9919 -26909.9948 534946.2959 14899.9919 -26909.9948
ENERGY: 520 319.5194 687.8618 2879.2456 0.0000 -194031.5137 19158.0079 157.2431 0.0000 0.0000 -170829.6358 0.0000 -170829.6358 -170829.6358 0.0000 14980.2969 -5449.8871 534946.2959 14980.2969 -5449.8871
ENERGY: 540 148.2476 643.7240 2875.0000 0.0000 -194342.9895 19260.2613 165.9547 0.0000 0.0000 -171249.8020 0.0000 -171249.8020 -171249.8020 0.0000 15031.5435 -5444.4844 534946.2959 15031.5435 -5444.4844
ENERGY: 560 157.2352 641.4902 2875.5765 0.0000 -194865.4226 19450.0184 177.7599 0.0000 0.0000 -171563.3423 0.0000 -171563.3423 -171563.3423 0.0000 15075.1673 -5442.5732 534946.2959 15075.1673 -5442.5732
ENERGY: 580 155.9752 645.7016 2868.6474 0.0000 -195639.6053 19743.2671 194.8255 0.0000 0.0000 -172031.1885 0.0000 -172031.1885 -172031.1885 0.0000 15206.3890 -5406.2598 534946.2959 15206.3890 -5406.2598
ENERGY: 600 157.3836 658.2159 2873.6955 0.0000 -195811.2652 19803.3353 198.3572 0.0000 0.0000 -172120.2778 0.0000 -172120.2778 -172120.2778 0.0000 15210.8670 -5410.0017 534946.2959 15210.8670 -5410.0017
TCL: Setting parameter constraintScaling to 0.15625
TCL: Minimizing for 100 steps
ETITLE: TS BOND ANGLE DIHED IMPRP ELECT VDW BOUNDARY MISC KINETIC TOTAL TEMP POTENTIAL TOTAL3 TEMPAVG PRESSURE GPRESSURE VOLUME PRESSAVG GPRESSAVG
ENERGY: 600 157.3836 658.2159 2873.6955 0.0000 -195811.2652 19803.3353 99.1786 0.0000 0.0000 -172219.4564 0.0000 -172219.4564 -172219.4564 0.0000 15324.9747 -26958.0536 534946.2959 15324.9747 -26958.0536
ENERGY: 620 203.5650 680.8337 2863.8347 0.0000 -196285.0002 19982.6259 107.1645 0.0000 0.0000 -172446.9765 0.0000 -172446.9765 -172446.9765 0.0000 15395.0543 -5284.2709 534946.2959 15395.0543 -5284.2709
ENERGY: 640 425.1376 724.6181 2871.0092 0.0000 -197063.7469 20266.1854 118.1205 0.0000 0.0000 -172658.6760 0.0000 -172658.6760 -172658.6760 0.0000 15462.8309 -5297.2616 534946.2959 15462.8309 -5297.2616
ENERGY: 660 185.1203 675.2093 2858.2597 0.0000 -197432.7988 20412.2842 123.1455 0.0000 0.0000 -173178.7797 0.0000 -173178.7797 -173178.7797 0.0000 15577.5023 -5230.5446 534946.2959 15577.5023 -5230.5446
ENERGY: 680 156.9916 651.9888 2856.9716 0.0000 -197845.2818 20558.4823 129.2400 0.0000 0.0000 -173491.6075 0.0000 -173491.6075 -173491.6075 0.0000 15670.6007 -5201.7498 534946.2959 15670.6007 -5201.7498
ENERGY: 700 176.0826 658.2607 2858.8202 0.0000 -198199.8304 20697.4443 131.8938 0.0000 0.0000 -173677.3288 0.0000 -173677.3288 -173677.3288 0.0000 15727.3992 -5170.6574 534946.2959 15727.3992 -5170.6574
TCL: Setting parameter constraintScaling to 0.078125
TCL: Minimizing for 100 steps
ETITLE: TS BOND ANGLE DIHED IMPRP ELECT VDW BOUNDARY MISC KINETIC TOTAL TEMP POTENTIAL TOTAL3 TEMPAVG PRESSURE GPRESSURE VOLUME PRESSAVG GPRESSAVG
ENERGY: 700 176.0826 658.2607 2858.8202 0.0000 -198199.8304 20697.4443 65.9469 0.0000 0.0000 -173743.2757 0.0000 -173743.2757 -173743.2757 0.0000 15795.5573 -27058.1904 534946.2959 15795.5573 -27058.1904
ENERGY: 720 158.5441 646.1257 2851.8969 0.0000 -198366.1442 20752.5998 68.2335 0.0000 0.0000 -173888.7442 0.0000 -173888.7442 -173888.7442 0.0000 15810.7674 -5115.6700 534946.2959 15810.7674 -5115.6700
ENERGY: 740 182.0138 648.2404 2854.2866 0.0000 -198791.5681 20905.7920 71.8816 0.0000 0.0000 -174129.3537 0.0000 -174129.3537 -174129.3537 0.0000 15860.1923 -5099.6833 534946.2959 15860.1923 -5099.6833
ENERGY: 760 318.6381 674.0572 2842.0471 0.0000 -199965.4846 21354.9138 83.2185 0.0000 0.0000 -174692.6099 0.0000 -174692.6099 -174692.6099 0.0000 16054.8074 -5052.9349 534946.2959 16054.8074 -5052.9349
ENERGY: 780 161.6907 658.4532 2838.7311 0.0000 -200157.1362 21434.1548 83.8270 0.0000 0.0000 -174980.2794 0.0000 -174980.2794 -174980.2794 0.0000 16136.7165 -5000.5928 534946.2959 16136.7165 -5000.5928
ENERGY: 800 186.3040 666.9773 2836.8907 0.0000 -200823.7579 21698.5884 87.4685 0.0000 0.0000 -175347.5290 0.0000 -175347.5290 -175347.5290 0.0000 16289.3503 -4918.3308 534946.2959 16289.3503 -4918.3308
TCL: Setting parameter constraintScaling to 0.0390625
TCL: Minimizing for 100 steps
ETITLE: TS BOND ANGLE DIHED IMPRP ELECT VDW BOUNDARY MISC KINETIC TOTAL TEMP POTENTIAL TOTAL3 TEMPAVG PRESSURE GPRESSURE VOLUME PRESSAVG GPRESSAVG
ENERGY: 800 186.3040 666.9773 2836.8907 0.0000 -200823.7579 21698.5884 43.7343 0.0000 0.0000 -175391.2633 0.0000 -175391.2633 -175391.2633 0.0000 16329.9492 -27158.5059 534946.2959 16329.9492 -27158.5059
ENERGY: 820 229.4915 701.9320 2842.6256 0.0000 -201101.0974 21782.6153 46.6419 0.0000 0.0000 -175497.7911 0.0000 -175497.7911 -175497.7911 0.0000 16269.3404 -4956.1006 534946.2959 16269.3404 -4956.1006
ENERGY: 840 172.7357 676.0876 2833.7547 0.0000 -201423.0249 21904.6865 48.2893 0.0000 0.0000 -175787.4711 0.0000 -175787.4711 -175787.4711 0.0000 16374.0697 -4908.3403 534946.2959 16374.0697 -4908.3403
ENERGY: 860 165.6144 653.0157 2832.3929 0.0000 -201557.1711 21964.2698 47.8650 0.0000 0.0000 -175894.0133 0.0000 -175894.0133 -175894.0133 0.0000 16444.5136 -4861.7721 534946.2959 16444.5136 -4861.7721
ENERGY: 880 181.8860 675.1986 2826.4226 0.0000 -202396.0270 22303.8747 52.2390 0.0000 0.0000 -176356.4061 0.0000 -176356.4061 -176356.4061 0.0000 16577.1663 -4823.2601 534946.2959 16577.1663 -4823.2601
ENERGY: 900 165.9136 661.4607 2822.9689 0.0000 -203059.5773 22589.8977 55.6611 0.0000 0.0000 -176763.6754 0.0000 -176763.6754 -176763.6754 0.0000 16743.7010 -4731.8493 534946.2959 16743.7010 -4731.8493
TCL: Setting parameter constraintScaling to 0.01953125
TCL: Minimizing for 100 steps
ETITLE: TS BOND ANGLE DIHED IMPRP ELECT VDW BOUNDARY MISC KINETIC TOTAL TEMP POTENTIAL TOTAL3 TEMPAVG PRESSURE GPRESSURE VOLUME PRESSAVG GPRESSAVG
ENERGY: 900 165.9136 661.4607 2822.9689 0.0000 -203059.5773 22589.8977 27.8305 0.0000 0.0000 -176791.5059 0.0000 -176791.5059 -176791.5059 0.0000 16767.2456 -27248.2180 534946.2959 16767.2456 -27248.2180
ENERGY: 920 220.4489 677.1688 2821.4535 0.0000 -203290.3108 22683.3669 28.3683 0.0000 0.0000 -176859.5045 0.0000 -176859.5045 -176859.5045 0.0000 16854.0255 -4666.7904 534946.2959 16854.0255 -4666.7904
ENERGY: 940 176.1859 660.4828 2819.0704 0.0000 -203471.8932 22751.3839 29.0993 0.0000 0.0000 -177035.6709 0.0000 -177035.6709 -177035.6709 0.0000 16838.3718 -4686.1729 534946.2959 16838.3718 -4686.1729
ENERGY: 960 161.7789 662.8364 2817.0136 0.0000 -203749.3593 22872.7283 29.6617 0.0000 0.0000 -177205.3405 0.0000 -177205.3405 -177205.3405 0.0000 16914.6432 -4644.2581 534946.2959 16914.6432 -4644.2581
ENERGY: 980 170.5889 658.6871 2818.3412 0.0000 -203849.2727 22910.3197 30.0578 0.0000 0.0000 -177261.2780 0.0000 -177261.2780 -177261.2780 0.0000 16902.4100 -4658.0608 534946.2959 16902.4100 -4658.0608
ENERGY: 1000 171.9332 663.7956 2815.4679 0.0000 -204013.6436 22979.9011 30.4959 0.0000 0.0000 -177352.0498 0.0000 -177352.0498 -177352.0498 0.0000 16954.2480 -4645.6832 534946.2959 16954.2480 -4645.6832
TCL: Setting parameter constraintScaling to 0
TCL: Minimizing for 5000 steps
ETITLE: TS BOND ANGLE DIHED IMPRP ELECT VDW BOUNDARY MISC KINETIC TOTAL TEMP POTENTIAL TOTAL3 TEMPAVG PRESSURE GPRESSURE VOLUME PRESSAVG GPRESSAVG
ENERGY: 1000 171.9332 663.7956 2815.4679 0.0000 -204013.6436 22979.9011 0.0000 0.0000 0.0000 -177382.5457 0.0000 -177382.5457 -177382.5457 0.0000 16979.2953 -27265.4888 534946.2959 16979.2953 -27265.4888
ENERGY: 2000 230.8306 691.5551 2803.1641 0.0000 -214456.3995 27672.1191 0.0000 0.0000 0.0000 -183058.7307 0.0000 -183058.7307 -183058.7307 0.0000 19464.8685 -3304.3677 534946.2959 19464.8685 -3304.3677
ENERGY: 3000 169.0791 667.1874 2792.0992 0.0000 -217325.8473 28825.2807 0.0000 0.0000 0.0000 -184872.2010 0.0000 -184872.2010 -184872.2010 0.0000 20076.7884 -2995.6000 534946.2959 20076.7884 -2995.6000
ENERGY: 4000 167.1495 665.5113 2784.1910 0.0000 -218587.7927 29319.2621 0.0000 0.0000 0.0000 -185651.6788 0.0000 -185651.6788 -185651.6788 0.0000 20328.7576 -2869.0859 534946.2959 20328.7576 -2869.0859
ENERGY: 5000 166.9554 665.4188 2778.0938 0.0000 -219281.9309 29586.7149 0.0000 0.0000 0.0000 -186084.7479 0.0000 -186084.7479 -186084.7479 0.0000 20457.2109 -2816.9576 534946.2959 20457.2109 -2816.9576
ENERGY: 6000 165.9239 666.6755 2777.5039 0.0000 -219664.6774 29698.9577 0.0000 0.0000 0.0000 -186355.6163 0.0000 -186355.6163 -186355.6163 0.0000 20513.2983 -2799.7196 534946.2959 20513.2983 -2799.7196
