Info: SIMULATION PARAMETERS:
Info: TIMESTEP               1
Info: NUMBER OF STEPS        0
Info: STEPS PER CYCLE        10
Info: PERIODIC CELL BASIS 1  72.449 0 0
Info: PERIODIC CELL BASIS 2  0 93.247 0
Info: PERIODIC CELL BASIS 3  0 0 79.185
Info: PERIODIC CELL CENTER   -0.248 -0.156 -0.047
Info: WRAPPING WATERS AROUND PERIODIC BOUNDARIES ON OUTPUT.
Info: WRAPPING ALL CLUSTERS AROUND PERIODIC BOUNDARIES ON OUTPUT.
Info: FIRST LDB TIMESTEP     50
Info: LAST LDB TIMESTEP     -1
Info: HOM BACKGROUND SCALING 1
Info: PME BACKGROUND SCALING 1
Info: MIN ATOMS PER PATCH    40
Info: VELOCITY FILE          ../replicas/rep56/equilibration/eq1.vel
Info: CENTER OF MASS MOVING INITIALLY? NO
Info: DIELECTRIC             1
Info: EXCLUDE                SCALED ONE-FOUR
Info: 1-4 ELECTROSTATICS SCALED BY 0.833333
Info: MODIFIED 1-4 VDW PARAMETERS WILL BE USED
Info: DCD FILENAME           ../replicas/rep56/equilibration/eq2.dcd
Info: DCD FREQUENCY          5000
Info: DCD FIRST STEP         5000
Info: DCD FILE WILL CONTAIN UNIT CELL DATA
Info: XST FILENAME           ../replicas/rep56/equilibration/eq2.xst
Info: XST FREQUENCY          5000
Info: NO VELOCITY DCD OUTPUT
Info: NO FORCE DCD OUTPUT
Info: OUTPUT FILENAME        ../replicas/rep56/equilibration/eq2
Info: RESTART FILENAME       ../replicas/rep56/equilibration/eq2.restart
Info: RESTART FREQUENCY      5000
Info: BINARY RESTART FILES WILL BE USED
Info: SWITCHING ACTIVE
Info: SWITCHING ON           10
Info: SWITCHING OFF          12
Info: PAIRLIST DISTANCE      13.5
Info: PAIRLIST SHRINK RATE   0.01
Info: PAIRLIST GROW RATE     0.01
Info: PAIRLIST TRIGGER       0.3
Info: PAIRLISTS PER CYCLE    2
Info: PAIRLISTS ENABLED
Info: MARGIN                 0.48
Info: HYDROGEN GROUP CUTOFF  2.5
Info: PATCH DIMENSION        16.48
Info: ENERGY OUTPUT STEPS    500
Info: CROSSTERM ENERGY INCLUDED IN DIHEDRAL
Info: TIMING OUTPUT STEPS    5000
Info: PRESSURE OUTPUT STEPS  500
Info: HARMONIC CONSTRAINTS ACTIVE
Info: HARMONIC CONS EXP      2
Info: HARMONIC CONS SCALING  10
Info: LANGEVIN DYNAMICS ACTIVE
Info: LANGEVIN TEMPERATURE   300
Info: LANGEVIN USING BBK INTEGRATOR
Info: LANGEVIN DAMPING COEFFICIENT IS 5 INVERSE PS
Info: LANGEVIN DYNAMICS NOT APPLIED TO HYDROGENS
Info: BERENDSEN PRESSURE COUPLING ACTIVE
Info:     TARGET PRESSURE IS 1 BAR
Info:     COMPRESSIBILITY ESTIMATE IS 4.57e-05 BAR^(-1)
Info:     RELAXATION TIME IS 100 FS
Info:     APPLIED EVERY 2 STEPS
Info:     PRESSURE CONTROL IS GROUP-BASED
Info:       CELL FLUCTUATION IS ISOTROPIC
Info: PARTICLE MESH EWALD (PME) ACTIVE
Info: PME TOLERANCE               1e-06
Info: PME EWALD COEFFICIENT       0.257952
Info: PME INTERPOLATION ORDER     4
Info: PME GRID DIMENSIONS         80 96 80
Info: PME MAXIMUM GRID SPACING    1
Info: FULL ELECTROSTATIC EVALUATION FREQUENCY      2
Info: USING VERLET I (r-RESPA) MTS SCHEME.
Info: C1 SPLITTING OF LONG RANGE ELECTROSTATICS
Info: PLACING ATOMS IN PATCHES BY HYDROGEN GROUPS
Info: RIGID BONDS TO HYDROGEN : WATER
Info:         ERROR TOLERANCE : 1e-05
Info:          MAX ITERATIONS : 100
Info: RIGID WATER USING SETTLE ALGORITHM
Info: RANDOM NUMBER SEED     1503694447
Info: USE HYDROGEN BONDS?    NO
Info: Using AMBER format force field!
Info: AMBER PARM FILE        ../build/complex.top
Info: COORDINATE PDB         ../replicas/rep56/equilibration/eq1.coor
Info: Exclusions in PARM file will be ignored!
Info: SCNB (VDW SCALING)     2
Info: USING ARITHMETIC MEAN TO COMBINE L-J SIGMA PARAMETERS
Info: SUMMARY OF PARAMETERS:
Info: 71 BONDS
Info: 145 ANGLES
Info: 76 DIHEDRAL
Info: 0 IMPROPER
Info: 0 CROSSTERM
Info: 0 VDW
Info: 190 VDW_PAIRS
Info: 0 NBTHOLE_PAIRS
Info: STRUCTURE SUMMARY:
Info: 49394 ATOMS
Info: 49448 BONDS
Info: 8698 ANGLES
Info: 18780 DIHEDRALS
Info: 0 IMPROPERS
Info: 0 CROSSTERMS
Info: 0 EXCLUSIONS
Info: 2336 CONSTRAINTS
Info: 44667 RIGID BONDS
Info: 103515 DEGREES OF FREEDOM
Info: 17225 HYDROGEN GROUPS
Info: 4 ATOMS IN LARGEST HYDROGEN GROUP
Info: 17225 MIGRATION GROUPS
Info: 4 ATOMS IN LARGEST MIGRATION GROUP
Info: TOTAL MASS = 301478 amu
Info: TOTAL CHARGE = 1.00115e-05 e
Info: MASS DENSITY = 0.935846 g/cm^3
Info: ATOM DENSITY = 0.0923345 atoms/A^3
Info: ADDED 70656 IMPLICIT EXCLUSIONS
Info: NONBONDED TABLE R-SQUARED SPACING: 0.0625
Info: NONBONDED TABLE SIZE: 769 POINTS
Info: REMOVING COM VELOCITY 0.0025702 -0.0262254 0.00594908
TCL: Running for 5000 steps
ETITLE: TS BOND ANGLE DIHED IMPRP ELECT VDW BOUNDARY MISC KINETIC TOTAL TEMP POTENTIAL TOTAL3 TEMPAVG PRESSURE GPRESSURE VOLUME PRESSAVG GPRESSAVG
ENERGY: 0 393.4041 1228.0441 2918.0312 0.0000 -212757.7199 29549.2290 0.0000 0.0000 10023.5864 -168645.4253 97.4564 -178669.0116 -168635.7925 97.4564 -2378.3746 -2474.5708 534946.2959 -2378.3746 -2474.5708
ENERGY: 1000 1267.5118 1983.1025 3092.5820 0.0000 -193972.0883 26768.4090 760.1595 0.0000 24134.2489 -135966.0745 234.6502 -160100.3234 -135938.6985 218.6176 -73.1446 11.2312 520880.0501 -11.7271 -11.8990
ENERGY: 2000 1461.2117 2199.7739 3139.6172 0.0000 -183988.0293 23171.3098 816.7597 0.0000 28096.4438 -125102.9132 273.1734 -153199.3570 -125065.9335 264.5491 -84.8029 -48.8491 513356.9478 -35.3472 -34.6586
ENERGY: 3000 1525.8928 2223.9836 3152.8402 0.0000 -178849.6461 21492.5908 810.6187 0.0000 29729.4091 -119914.3109 289.0503 -149643.7200 -119870.2681 286.2203 -24.6750 25.7153 509832.7387 -9.5561 -9.6329
ENERGY: 4000 1500.2934 2240.3985 3148.0409 0.0000 -176495.9781 20634.3303 810.9345 0.0000 30631.8414 -117530.1391 297.8243 -148161.9805 -117488.1250 294.0134 -8.2748 -17.7300 507744.2458 -4.8918 -5.2330
ENERGY: 5000 1571.8357 2229.0129 3133.1141 0.0000 -175737.7092 20289.2973 817.9372 0.0000 30391.3347 -117305.1773 295.4860 -147696.5120 -117263.7530 297.4164 -76.6498 -13.1639 505889.7991 -10.6808 -10.5174
TCL: Setting parameter constraintScaling to 5.0
TCL: Running for 5000 steps
ETITLE: TS BOND ANGLE DIHED IMPRP ELECT VDW BOUNDARY MISC KINETIC TOTAL TEMP POTENTIAL TOTAL3 TEMPAVG PRESSURE GPRESSURE VOLUME PRESSAVG GPRESSAVG
ENERGY: 5000 1571.8357 2229.0129 3133.1141 0.0000 -175737.7092 20289.2973 408.9686 0.0000 30389.3114 -117716.1692 295.4663 -148105.4806 -117669.6096 295.4663 -175.4189 -115.5671 505889.7991 -175.4189 -115.5671
ENERGY: 6000 1618.4589 2320.1333 3181.9215 0.0000 -175701.9283 20198.6183 648.8461 0.0000 30786.0442 -116947.9060 299.3236 -147733.9502 -116905.3635 299.1093 -78.2013 15.2369 504257.8632 -2.2130 -2.1859
ENERGY: 7000 1620.6421 2355.9506 3163.2766 0.0000 -175308.6930 20296.0504 645.5573 0.0000 30717.9618 -116509.2542 298.6617 -147227.2160 -116477.9260 300.2617 -42.1082 2.9052 503259.1849 2.1260 1.9606
ENERGY: 8000 1667.0594 2322.4177 3182.7332 0.0000 -175566.9158 20152.8437 622.1553 0.0000 30962.9726 -116656.7339 301.0438 -147619.7065 -116619.6736 299.2367 -51.8226 12.7072 503686.0918 11.5151 11.8785
ENERGY: 9000 1586.4747 2295.5082 3170.2968 0.0000 -175626.3558 20111.5167 666.4920 0.0000 31011.5758 -116784.4916 301.5164 -147796.0673 -116742.6326 299.5287 -57.2886 -84.8295 501444.3541 -15.6082 -14.7956
ENERGY: 10000 1607.2688 2300.2695 3175.3142 0.0000 -175599.5537 19986.8177 658.6742 0.0000 30746.5951 -117124.6142 298.9401 -147871.2093 -117082.1265 299.5620 -63.3193 13.4591 500244.6547 -3.6353 -4.0200
TCL: Setting parameter constraintScaling to 2.5
TCL: Running for 5000 steps
ETITLE: TS BOND ANGLE DIHED IMPRP ELECT VDW BOUNDARY MISC KINETIC TOTAL TEMP POTENTIAL TOTAL3 TEMPAVG PRESSURE GPRESSURE VOLUME PRESSAVG GPRESSAVG
ENERGY: 10000 1607.2688 2300.2695 3175.3142 0.0000 -175599.5537 19986.8177 329.3371 0.0000 30744.5441 -117456.0023 298.9201 -148200.5464 -117412.0646 298.9201 -177.9339 -105.7207 500244.6547 -177.9339 -105.7207
ENERGY: 11000 1566.1750 2322.8217 3177.2881 0.0000 -175815.6137 20294.5400 499.8551 0.0000 30875.1233 -117079.8105 300.1897 -147954.9337 -117044.6787 299.5904 37.7217 75.1670 500890.2039 6.2625 6.4463
ENERGY: 12000 1576.2026 2344.3750 3156.6571 0.0000 -175735.9178 20109.9713 508.3070 0.0000 30691.6345 -117348.7703 298.4057 -148040.4048 -117295.7381 300.0465 -17.3973 -17.0651 501725.6712 8.2088 7.2417
ENERGY: 13000 1643.6697 2328.0630 3189.6466 0.0000 -175655.1339 20253.0436 520.1986 0.0000 30889.7499 -116830.7625 300.3319 -147720.5124 -116795.6639 299.7248 32.9091 -12.2120 502023.7113 7.9927 7.9000
ENERGY: 14000 1611.7857 2353.8612 3192.1363 0.0000 -175363.6347 20009.4982 513.9364 0.0000 30868.5546 -116813.8622 300.1258 -147682.4168 -116764.0149 299.6909 -3.2909 29.5116 501365.1357 -0.7496 -0.0136
ENERGY: 15000 1658.6410 2357.9416 3213.7452 0.0000 -175368.8275 20077.3366 505.0880 0.0000 30909.2705 -116646.8047 300.5217 -147556.0752 -116602.5795 300.4127 -101.0246 21.3180 499745.7968 -4.4094 -4.2897
TCL: Setting parameter constraintScaling to 1.25
TCL: Running for 5000 steps
ETITLE: TS BOND ANGLE DIHED IMPRP ELECT VDW BOUNDARY MISC KINETIC TOTAL TEMP POTENTIAL TOTAL3 TEMPAVG PRESSURE GPRESSURE VOLUME PRESSAVG GPRESSAVG
ENERGY: 15000 1658.6410 2357.9416 3213.7452 0.0000 -175368.8275 20077.3366 252.5440 0.0000 30907.2337 -116901.3854 300.5019 -147808.6192 -116857.2794 300.5019 -150.3420 -26.6902 499745.7968 -150.3420 -26.6902
ENERGY: 16000 1647.9362 2359.8904 3215.3698 0.0000 -175603.4612 20311.0473 403.1677 0.0000 30925.1832 -116740.8665 300.6764 -147666.0498 -116685.1770 300.2884 -15.2772 -9.9664 499884.9389 -2.1329 -1.1287
ENERGY: 17000 1656.1794 2432.4479 3211.7432 0.0000 -176100.6957 20222.4752 386.5842 0.0000 30860.7688 -117330.4970 300.0501 -148191.2658 -117271.7988 299.6875 -153.5070 -80.4839 499934.4554 -2.9950 -2.9216
ENERGY: 18000 1574.1860 2392.9676 3218.5202 0.0000 -175618.9151 20069.7537 391.8964 0.0000 30956.1866 -117015.4046 300.9779 -147971.5912 -116970.0513 300.0156 28.6114 73.5767 500557.6819 -4.6670 -4.3836
ENERGY: 19000 1643.5132 2377.6788 3193.0643 0.0000 -175268.6675 19728.0153 412.7220 0.0000 30617.5083 -117296.1657 297.6850 -147913.6739 -117246.2681 300.0113 -56.8992 0.8595 498287.3867 -1.0234 -0.7840
ENERGY: 20000 1633.3864 2369.1991 3181.4232 0.0000 -176151.1057 20367.6984 393.3113 0.0000 30833.4411 -117372.6462 299.7844 -148206.0873 -117325.1626 299.0960 -36.4304 47.9207 498255.7855 -2.7460 -2.7032
TCL: Setting parameter constraintScaling to 0.625
TCL: Running for 5000 steps
ETITLE: TS BOND ANGLE DIHED IMPRP ELECT VDW BOUNDARY MISC KINETIC TOTAL TEMP POTENTIAL TOTAL3 TEMPAVG PRESSURE GPRESSURE VOLUME PRESSAVG GPRESSAVG
ENERGY: 20000 1633.3864 2369.1991 3181.4232 0.0000 -176151.1057 20367.6984 196.6556 0.0000 30831.3908 -117571.3522 299.7645 -148402.7430 -117526.5910 299.7645 3.1046 80.9682 498255.7855 3.1046 80.9682
ENERGY: 21000 1680.2484 2378.8454 3205.5982 0.0000 -175704.3130 20019.4161 323.6765 0.0000 31144.1295 -116952.3988 302.8052 -148096.5283 -116890.6652 300.2861 -53.0258 21.6731 498825.3970 -6.0710 -6.2071
ENERGY: 22000 1642.9828 2405.9273 3154.4133 0.0000 -175293.9422 19953.9495 322.7696 0.0000 30864.8425 -116949.0572 300.0898 -147813.8997 -116902.8237 300.2796 -45.4001 54.6941 499846.5886 1.3075 1.6743
ENERGY: 23000 1624.4719 2311.2763 3181.2543 0.0000 -175462.1464 20061.5760 306.8099 0.0000 30828.2474 -117148.5105 299.7339 -147976.7579 -117107.5373 299.4142 -64.2767 -12.6876 499763.9629 2.3223 2.9329
ENERGY: 24000 1616.0845 2388.3397 3182.2851 0.0000 -175632.9393 19902.1354 312.6814 0.0000 31003.5975 -117227.8158 301.4388 -148231.4133 -117177.2389 299.9201 6.5084 0.1599 497821.0111 5.5014 5.2387
ENERGY: 25000 1629.8891 2368.6903 3227.9508 0.0000 -175578.0906 20037.7733 318.3187 0.0000 30866.3237 -117129.1447 300.1042 -147995.4684 -117083.3854 299.6192 4.8570 21.3659 498505.5895 8.8848 8.5155
TCL: Setting parameter constraintScaling to 0.3125
TCL: Running for 5000 steps
ETITLE: TS BOND ANGLE DIHED IMPRP ELECT VDW BOUNDARY MISC KINETIC TOTAL TEMP POTENTIAL TOTAL3 TEMPAVG PRESSURE GPRESSURE VOLUME PRESSAVG GPRESSAVG
ENERGY: 25000 1629.8891 2368.6903 3227.9508 0.0000 -175578.0906 20037.7733 159.1594 0.0000 30864.3017 -117290.3261 300.0845 -148154.6278 -117248.7786 300.0845 -31.1517 -12.7833 498505.5895 -31.1517 -12.7833
ENERGY: 26000 1650.9590 2397.8236 3187.5911 0.0000 -176212.3548 20266.9135 250.6928 0.0000 30821.3407 -117637.0340 299.6668 -148458.3748 -117601.0819 299.4366 50.0486 -47.3709 498534.9043 0.0781 0.3506
ENERGY: 27000 1644.3993 2390.6776 3216.3065 0.0000 -175798.1363 20066.4536 236.6668 0.0000 30706.6231 -117537.0094 298.5514 -148243.6324 -117497.1172 298.9398 -26.4545 -14.6742 498524.1353 -8.6937 -8.3982
ENERGY: 28000 1620.5126 2375.1147 3183.1423 0.0000 -175634.9947 19989.1622 241.1436 0.0000 30925.7908 -117300.1285 300.6823 -148225.9193 -117251.3321 299.5698 -11.2432 23.1103 499150.5910 4.9340 5.1589
ENERGY: 29000 1695.9827 2437.1378 3232.2407 0.0000 -175424.9329 19914.3935 241.9458 0.0000 30856.9685 -117046.2640 300.0132 -147903.2324 -117003.2791 300.3333 -56.6125 -52.2921 498421.5486 -1.0616 -0.9723
ENERGY: 30000 1630.8201 2399.8125 3250.6382 0.0000 -175557.0892 19972.7298 236.3825 0.0000 30792.7939 -117273.9122 299.3892 -148066.7061 -117230.9570 300.0054 58.6164 -1.7349 498189.8080 3.2607 3.0199
TCL: Setting parameter constraintScaling to 0.15625
TCL: Running for 5000 steps
ETITLE: TS BOND ANGLE DIHED IMPRP ELECT VDW BOUNDARY MISC KINETIC TOTAL TEMP POTENTIAL TOTAL3 TEMPAVG PRESSURE GPRESSURE VOLUME PRESSAVG GPRESSAVG
ENERGY: 30000 1630.8201 2399.8125 3250.6382 0.0000 -175557.0892 19972.7298 118.1913 0.0000 30790.7527 -117394.1447 299.3694 -148184.8974 -117352.5436 299.3694 15.3705 -50.9729 498189.8080 15.3705 -50.9729
ENERGY: 31000 1660.8826 2404.1398 3216.3805 0.0000 -175590.7768 19889.5706 187.2446 0.0000 30800.2892 -117432.2695 299.4621 -148232.5586 -117386.5306 299.6223 72.0875 92.9496 496951.2406 -18.6411 -18.6019
ENERGY: 32000 1660.3418 2454.5510 3217.0397 0.0000 -176181.9256 20187.7877 199.0764 0.0000 30856.1611 -117606.9679 300.0053 -148463.1290 -117563.3626 299.5321 13.4295 -15.9736 496905.1803 -2.8608 -2.6188
ENERGY: 33000 1673.4927 2354.6494 3194.0493 0.0000 -176160.7356 20103.3839 195.0372 0.0000 30788.0421 -117852.0809 299.3430 -148640.1230 -117806.1937 299.1964 -45.4693 -64.6840 496237.6771 -9.6928 -9.9412
ENERGY: 34000 1650.1722 2387.9941 3182.0474 0.0000 -175950.1270 19977.4603 194.7620 0.0000 31001.3257 -117556.3653 301.4167 -148557.6911 -117518.2516 299.1769 27.5697 -44.4813 498241.9378 7.6793 7.0193
ENERGY: 35000 1618.3343 2443.4836 3221.4833 0.0000 -175960.6549 20088.4759 205.2930 0.0000 30833.3781 -117550.2066 299.7838 -148383.5847 -117514.1079 300.0121 -56.5397 -35.3712 498262.8083 16.7471 16.9307
TCL: Setting parameter constraintScaling to 0.078125
TCL: Running for 5000 steps
ETITLE: TS BOND ANGLE DIHED IMPRP ELECT VDW BOUNDARY MISC KINETIC TOTAL TEMP POTENTIAL TOTAL3 TEMPAVG PRESSURE GPRESSURE VOLUME PRESSAVG GPRESSAVG
ENERGY: 35000 1618.3343 2443.4836 3221.4833 0.0000 -175960.6549 20088.4759 102.6465 0.0000 30831.3119 -117654.9193 299.7637 -148486.2312 -117610.3959 299.7637 -82.8678 -59.5067 498262.8083 -82.8678 -59.5067
ENERGY: 36000 1680.3767 2489.9582 3216.9620 0.0000 -175854.1265 20049.2350 146.9876 0.0000 30768.7993 -117501.8078 299.1560 -148270.6070 -117452.2282 300.0252 -26.3216 10.3849 497681.8843 7.9378 7.9059
ENERGY: 37000 1667.8521 2393.4251 3236.2932 0.0000 -175937.5857 20020.7372 154.9578 0.0000 30634.0240 -117830.2963 297.8456 -148464.3203 -117784.9186 298.8476 -150.7354 -59.1293 498326.8151 10.0572 10.3375
ENERGY: 38000 1662.3966 2414.0150 3220.9235 0.0000 -176230.0730 20344.1692 145.5519 0.0000 30769.4332 -117673.5836 299.1621 -148443.0168 -117626.8763 299.9266 -77.3639 40.4420 498495.2875 -0.5488 -0.0341
ENERGY: 39000 1663.7693 2404.1736 3208.9942 0.0000 -176262.2038 20198.5097 161.0777 0.0000 30817.5154 -117808.1639 299.6296 -148625.6793 -117754.0709 299.1318 51.0782 33.7852 497443.1560 -11.1790 -11.0242
ENERGY: 40000 1644.8585 2398.0604 3222.7882 0.0000 -175607.1173 20242.5742 161.1193 0.0000 30681.1164 -117256.6003 298.3034 -147937.7167 -117226.0593 300.5975 -21.0470 112.5985 498282.7078 12.5441 13.0054
TCL: Setting parameter constraintScaling to 0.0390625
TCL: Running for 5000 steps
ETITLE: TS BOND ANGLE DIHED IMPRP ELECT VDW BOUNDARY MISC KINETIC TOTAL TEMP POTENTIAL TOTAL3 TEMPAVG PRESSURE GPRESSURE VOLUME PRESSAVG GPRESSAVG
ENERGY: 40000 1644.8585 2398.0604 3222.7882 0.0000 -175607.1173 20242.5742 80.5597 0.0000 30679.0953 -117339.1811 298.2838 -148018.2763 -117294.8639 298.2838 -23.8833 109.2692 498282.7078 -23.8833 109.2692
ENERGY: 41000 1621.2991 2391.7464 3255.0380 0.0000 -175395.2668 19848.3125 117.4113 0.0000 30906.5413 -117254.9182 300.4952 -148161.4595 -117206.0564 300.8276 -37.4002 26.8070 497023.1145 -1.8791 -1.6788
ENERGY: 42000 1651.3695 2352.5847 3240.3475 0.0000 -176054.7628 20145.9435 108.3083 0.0000 30806.2881 -117749.9211 299.5204 -148556.2093 -117707.1696 299.4729 -84.4095 8.0966 495509.9178 -6.9730 -6.6993
ENERGY: 43000 1599.9587 2406.2097 3252.9232 0.0000 -176038.5083 20138.4628 123.1584 0.0000 30620.0545 -117897.7409 297.7097 -148517.7955 -117852.6231 299.4502 129.6215 173.9216 496898.4821 8.8723 9.3858
ENERGY: 44000 1581.4208 2393.1124 3216.2768 0.0000 -175970.0828 20100.1739 114.0155 0.0000 30826.0226 -117739.0608 299.7123 -148565.0834 -117698.0641 298.8141 215.2211 40.3661 495780.1619 -5.9510 -6.1086
ENERGY: 45000 1635.2736 2348.5271 3221.7389 0.0000 -176126.9477 20116.3272 125.4292 0.0000 30856.9834 -117822.6683 300.0133 -148679.6517 -117774.8912 299.4758 -39.6825 22.4470 497198.4393 7.6347 7.1518
TCL: Setting parameter constraintScaling to 0.01953125
TCL: Running for 5000 steps
ETITLE: TS BOND ANGLE DIHED IMPRP ELECT VDW BOUNDARY MISC KINETIC TOTAL TEMP POTENTIAL TOTAL3 TEMPAVG PRESSURE GPRESSURE VOLUME PRESSAVG GPRESSAVG
ENERGY: 45000 1635.2736 2348.5271 3221.7389 0.0000 -176126.9477 20116.3272 62.7146 0.0000 30854.9189 -117887.4474 299.9933 -148742.3663 -117843.0041 299.9933 -47.1267 12.3108 497198.4393 -47.1267 12.3108
ENERGY: 46000 1664.2165 2492.1921 3247.1910 0.0000 -176268.3429 20169.4427 79.0225 0.0000 30830.5559 -117785.7224 299.7564 -148616.2783 -117748.0056 300.3664 -23.1275 -78.5903 496439.3202 -1.6898 -2.0741
ENERGY: 47000 1591.0646 2416.2688 3211.0332 0.0000 -175775.2109 20086.7944 78.4359 0.0000 30616.7071 -117774.9069 297.6772 -148391.6140 -117726.2873 299.8936 47.4481 148.7597 495832.0117 -5.7085 -5.3671
ENERGY: 48000 1674.6774 2373.4391 3187.6335 0.0000 -175716.2618 20016.7251 83.8635 0.0000 31046.0143 -117333.9088 301.8512 -148379.9231 -117284.2555 301.5527 -9.6332 -31.9576 496621.1565 3.4948 3.3443
ENERGY: 49000 1635.0850 2381.0433 3218.2842 0.0000 -175620.8462 19924.1900 84.4901 0.0000 30968.5426 -117409.2109 301.0980 -148377.7535 -117374.9691 300.7731 9.3869 -3.3075 496677.1927 9.6517 10.6354
ENERGY: 50000 1586.9687 2381.9885 3199.1158 0.0000 -175650.7865 20102.8170 87.7594 0.0000 30802.3974 -117489.7396 299.4826 -148292.1370 -117436.9123 300.2155 81.0686 66.9195 496389.3182 2.2743 2.6061
TCL: Setting parameter constraintScaling to 0
TCL: Running for 5000 steps
ETITLE: TS BOND ANGLE DIHED IMPRP ELECT VDW BOUNDARY MISC KINETIC TOTAL TEMP POTENTIAL TOTAL3 TEMPAVG PRESSURE GPRESSURE VOLUME PRESSAVG GPRESSAVG
ENERGY: 50000 1586.9687 2381.9885 3199.1158 0.0000 -175650.7865 20102.8170 0.0000 0.0000 30800.3541 -117579.5424 299.4627 -148379.8964 -117533.2444 299.4627 55.2193 48.4109 496389.3182 55.2193 48.4109
ENERGY: 51000 1616.6172 2405.2692 3236.6257 0.0000 -175898.0942 20071.2718 0.0000 0.0000 30754.2922 -117814.0180 299.0149 -148568.3102 -117767.3461 299.5990 95.0658 113.1491 496133.6738 8.2709 8.5369
ENERGY: 52000 1627.7140 2439.5056 3261.3863 0.0000 -175632.9054 19867.7670 0.0000 0.0000 30603.7409 -117832.7916 297.5511 -148436.5325 -117776.8494 300.0338 -52.1364 -75.7404 496227.3253 -7.3541 -7.4949
ENERGY: 53000 1643.9177 2407.1464 3236.8507 0.0000 -176079.8268 20070.5909 0.0000 0.0000 30746.8517 -117974.4694 298.9426 -148721.3211 -117937.8884 299.2489 65.4029 124.3754 496002.6523 6.7899 6.4584
ENERGY: 54000 1660.0844 2459.6592 3206.1617 0.0000 -175636.0293 20002.9524 0.0000 0.0000 30783.9681 -117523.2035 299.3034 -148307.1716 -117490.0902 300.3476 -150.3375 -90.2382 497085.1546 7.2118 6.8352
ENERGY: 55000 1617.0665 2435.1501 3243.0587 0.0000 -175987.4528 20058.9354 0.0000 0.0000 30929.9781 -117703.2640 300.7230 -148633.2421 -117654.1435 300.1097 -54.9291 -4.6284 496038.6252 -3.6217 -4.1883
