Info: SIMULATION PARAMETERS:
Info: TIMESTEP               1
Info: NUMBER OF STEPS        0
Info: STEPS PER CYCLE        10
Info: PERIODIC CELL BASIS 1  72.449 0 0
Info: PERIODIC CELL BASIS 2  0 93.247 0
Info: PERIODIC CELL BASIS 3  0 0 79.185
Info: PERIODIC CELL CENTER   -0.248 -0.156 -0.047
Info: WRAPPING WATERS AROUND PERIODIC BOUNDARIES ON OUTPUT.
Info: WRAPPING ALL CLUSTERS AROUND PERIODIC BOUNDARIES ON OUTPUT.
Info: FIRST LDB TIMESTEP     50
Info: LAST LDB TIMESTEP     -1
Info: HOM BACKGROUND SCALING 1
Info: PME BACKGROUND SCALING 1
Info: MIN ATOMS PER PATCH    40
Info: VELOCITY FILE          ../replicas/rep97/equilibration/eq1.vel
Info: CENTER OF MASS MOVING INITIALLY? NO
Info: DIELECTRIC             1
Info: EXCLUDE                SCALED ONE-FOUR
Info: 1-4 ELECTROSTATICS SCALED BY 0.833333
Info: MODIFIED 1-4 VDW PARAMETERS WILL BE USED
Info: DCD FILENAME           ../replicas/rep97/equilibration/eq2.dcd
Info: DCD FREQUENCY          5000
Info: DCD FIRST STEP         5000
Info: DCD FILE WILL CONTAIN UNIT CELL DATA
Info: XST FILENAME           ../replicas/rep97/equilibration/eq2.xst
Info: XST FREQUENCY          5000
Info: NO VELOCITY DCD OUTPUT
Info: NO FORCE DCD OUTPUT
Info: OUTPUT FILENAME        ../replicas/rep97/equilibration/eq2
Info: RESTART FILENAME       ../replicas/rep97/equilibration/eq2.restart
Info: RESTART FREQUENCY      5000
Info: BINARY RESTART FILES WILL BE USED
Info: SWITCHING ACTIVE
Info: SWITCHING ON           10
Info: SWITCHING OFF          12
Info: PAIRLIST DISTANCE      13.5
Info: PAIRLIST SHRINK RATE   0.01
Info: PAIRLIST GROW RATE     0.01
Info: PAIRLIST TRIGGER       0.3
Info: PAIRLISTS PER CYCLE    2
Info: PAIRLISTS ENABLED
Info: MARGIN                 0.48
Info: HYDROGEN GROUP CUTOFF  2.5
Info: PATCH DIMENSION        16.48
Info: ENERGY OUTPUT STEPS    500
Info: CROSSTERM ENERGY INCLUDED IN DIHEDRAL
Info: TIMING OUTPUT STEPS    5000
Info: PRESSURE OUTPUT STEPS  500
Info: HARMONIC CONSTRAINTS ACTIVE
Info: HARMONIC CONS EXP      2
Info: HARMONIC CONS SCALING  10
Info: LANGEVIN DYNAMICS ACTIVE
Info: LANGEVIN TEMPERATURE   300
Info: LANGEVIN USING BBK INTEGRATOR
Info: LANGEVIN DAMPING COEFFICIENT IS 5 INVERSE PS
Info: LANGEVIN DYNAMICS NOT APPLIED TO HYDROGENS
Info: BERENDSEN PRESSURE COUPLING ACTIVE
Info:     TARGET PRESSURE IS 1 BAR
Info:     COMPRESSIBILITY ESTIMATE IS 4.57e-05 BAR^(-1)
Info:     RELAXATION TIME IS 100 FS
Info:     APPLIED EVERY 2 STEPS
Info:     PRESSURE CONTROL IS GROUP-BASED
Info:       CELL FLUCTUATION IS ISOTROPIC
Info: PARTICLE MESH EWALD (PME) ACTIVE
Info: PME TOLERANCE               1e-06
Info: PME EWALD COEFFICIENT       0.257952
Info: PME INTERPOLATION ORDER     4
Info: PME GRID DIMENSIONS         80 96 80
Info: PME MAXIMUM GRID SPACING    1
Info: FULL ELECTROSTATIC EVALUATION FREQUENCY      2
Info: USING VERLET I (r-RESPA) MTS SCHEME.
Info: C1 SPLITTING OF LONG RANGE ELECTROSTATICS
Info: PLACING ATOMS IN PATCHES BY HYDROGEN GROUPS
Info: RIGID BONDS TO HYDROGEN : WATER
Info:         ERROR TOLERANCE : 1e-05
Info:          MAX ITERATIONS : 100
Info: RIGID WATER USING SETTLE ALGORITHM
Info: RANDOM NUMBER SEED     1503708661
Info: USE HYDROGEN BONDS?    NO
Info: Using AMBER format force field!
Info: AMBER PARM FILE        ../build/complex.top
Info: COORDINATE PDB         ../replicas/rep97/equilibration/eq1.coor
Info: Exclusions in PARM file will be ignored!
Info: SCNB (VDW SCALING)     2
Info: USING ARITHMETIC MEAN TO COMBINE L-J SIGMA PARAMETERS
Info: SUMMARY OF PARAMETERS:
Info: 71 BONDS
Info: 145 ANGLES
Info: 76 DIHEDRAL
Info: 0 IMPROPER
Info: 0 CROSSTERM
Info: 0 VDW
Info: 190 VDW_PAIRS
Info: 0 NBTHOLE_PAIRS
Info: STRUCTURE SUMMARY:
Info: 49394 ATOMS
Info: 49448 BONDS
Info: 8698 ANGLES
Info: 18780 DIHEDRALS
Info: 0 IMPROPERS
Info: 0 CROSSTERMS
Info: 0 EXCLUSIONS
Info: 2336 CONSTRAINTS
Info: 44667 RIGID BONDS
Info: 103515 DEGREES OF FREEDOM
Info: 17225 HYDROGEN GROUPS
Info: 4 ATOMS IN LARGEST HYDROGEN GROUP
Info: 17225 MIGRATION GROUPS
Info: 4 ATOMS IN LARGEST MIGRATION GROUP
Info: TOTAL MASS = 301478 amu
Info: TOTAL CHARGE = 1.00115e-05 e
Info: MASS DENSITY = 0.935846 g/cm^3
Info: ATOM DENSITY = 0.0923345 atoms/A^3
Info: ADDED 70656 IMPLICIT EXCLUSIONS
Info: NONBONDED TABLE R-SQUARED SPACING: 0.0625
Info: NONBONDED TABLE SIZE: 769 POINTS
Info: REMOVING COM VELOCITY 0.0105426 -0.0119552 -0.0193645
TCL: Running for 5000 steps
ETITLE: TS BOND ANGLE DIHED IMPRP ELECT VDW BOUNDARY MISC KINETIC TOTAL TEMP POTENTIAL TOTAL3 TEMPAVG PRESSURE GPRESSURE VOLUME PRESSAVG GPRESSAVG
ENERGY: 0 385.0032 1200.3002 2916.0412 0.0000 -213112.6573 29863.9108 0.0000 0.0000 10087.5652 -168659.8367 98.0784 -178747.4019 -168650.2387 98.0784 -2192.9843 -2292.3469 534946.2959 -2192.9843 -2292.3469
ENERGY: 1000 1236.5079 1980.4716 3126.4019 0.0000 -193663.0741 26625.7182 774.9097 0.0000 24028.0065 -135891.0584 233.6172 -159919.0649 -135853.9539 218.5297 14.1126 0.7034 523118.1172 -19.1803 -19.3145
ENERGY: 2000 1460.9793 2099.2644 3137.1508 0.0000 -183675.8546 23094.0060 787.6328 0.0000 27937.0043 -125159.8171 271.6232 -153096.8214 -125110.1978 265.1194 -26.5034 -36.3732 516865.6813 -21.2240 -20.8019
ENERGY: 3000 1517.2653 2146.9398 3120.7982 0.0000 -178757.2643 21404.1758 789.1727 0.0000 29542.9340 -120235.9785 287.2372 -149778.9125 -120195.8007 284.0521 -3.4494 -18.1479 510072.0131 -30.4189 -30.8317
ENERGY: 4000 1590.1645 2265.7129 3138.7542 0.0000 -177258.6546 21019.2995 814.6327 0.0000 30282.2297 -118147.8610 294.4252 -148430.0907 -118111.9896 293.1197 -53.9605 -8.3872 506479.0641 -8.4366 -8.5369
ENERGY: 5000 1556.6351 2275.7285 3165.7755 0.0000 -176291.9077 20460.7014 778.1674 0.0000 30782.0906 -117272.8092 299.2852 -148054.8998 -117232.8800 297.7362 44.7005 20.9745 503882.3936 -7.2133 -7.7673
TCL: Setting parameter constraintScaling to 5.0
TCL: Running for 5000 steps
ETITLE: TS BOND ANGLE DIHED IMPRP ELECT VDW BOUNDARY MISC KINETIC TOTAL TEMP POTENTIAL TOTAL3 TEMPAVG PRESSURE GPRESSURE VOLUME PRESSAVG GPRESSAVG
ENERGY: 5000 1556.6351 2275.7285 3165.7755 0.0000 -176291.9077 20460.7014 389.0837 0.0000 30780.0646 -117663.9189 299.2655 -148443.9835 -117618.3847 299.2655 8.3046 -21.4901 503882.3936 8.3046 -21.4901
ENERGY: 6000 1605.0478 2259.2182 3183.3002 0.0000 -175655.6140 20350.1148 638.3121 0.0000 30674.9567 -116944.6643 298.2435 -147619.6210 -116898.7273 297.9088 4.3617 4.3103 503558.6582 -8.7929 -8.6727
ENERGY: 7000 1626.6774 2308.1480 3161.2821 0.0000 -175663.6665 20189.8095 628.0391 0.0000 30867.4297 -116882.2808 300.1149 -147749.7105 -116836.6980 298.8596 32.4583 76.0238 502207.6270 -8.9976 -9.5744
ENERGY: 8000 1622.6764 2270.5103 3182.8473 0.0000 -175392.6637 20191.9039 633.5452 0.0000 30782.0362 -116709.1444 299.2846 -147491.1806 -116655.8467 298.2407 77.5787 -4.2077 503177.2798 8.0471 7.9197
ENERGY: 9000 1621.5946 2328.7616 3204.2984 0.0000 -175018.3192 20071.1037 621.3009 0.0000 30791.8602 -116379.3999 299.3802 -147171.2602 -116335.2566 299.6346 -42.6615 33.5280 502082.7340 -13.2810 -13.1035
ENERGY: 10000 1649.6049 2320.7102 3134.9571 0.0000 -175672.1123 20173.5138 645.6854 0.0000 30814.6376 -116933.0033 299.6016 -147747.6409 -116884.7573 299.8514 -12.1588 28.4725 500038.3636 -0.5002 -0.4764
TCL: Setting parameter constraintScaling to 2.5
TCL: Running for 5000 steps
ETITLE: TS BOND ANGLE DIHED IMPRP ELECT VDW BOUNDARY MISC KINETIC TOTAL TEMP POTENTIAL TOTAL3 TEMPAVG PRESSURE GPRESSURE VOLUME PRESSAVG GPRESSAVG
ENERGY: 10000 1649.6049 2320.7102 3134.9571 0.0000 -175672.1123 20173.5138 322.8427 0.0000 30812.5819 -117257.9017 299.5816 -148070.4836 -117216.5781 299.5816 32.6263 69.1408 500038.3636 32.6263 69.1408
ENERGY: 11000 1641.6542 2269.0678 3167.0401 0.0000 -175627.4960 20102.3019 517.8941 0.0000 30630.1507 -117299.3872 297.8079 -147929.5379 -117247.5907 299.1673 -64.0338 -4.6227 500519.9117 -2.5211 -2.3316
ENERGY: 12000 1612.1336 2279.7417 3199.0448 0.0000 -176190.0648 20222.5181 507.4726 0.0000 30803.0541 -117566.1000 299.4890 -148369.1540 -117521.9729 298.5990 -253.9671 -61.6954 498811.4774 6.3489 6.4015
ENERGY: 13000 1642.0184 2406.4229 3185.1008 0.0000 -175514.1084 19914.3176 531.1085 0.0000 30921.8050 -116913.3353 300.6436 -147835.1402 -116870.2556 299.6717 -148.8887 0.7434 497371.7372 -2.6134 -2.3196
ENERGY: 14000 1604.0475 2338.8345 3197.9410 0.0000 -175833.9857 20008.2285 511.9216 0.0000 30914.8683 -117258.1444 300.5761 -148173.0127 -117209.5363 300.3636 18.1785 17.6871 497990.2145 12.3149 12.1388
ENERGY: 15000 1605.8652 2338.4101 3148.1239 0.0000 -175542.4848 20138.9170 481.9614 0.0000 30850.2726 -116978.9345 299.9481 -147829.2071 -116933.8582 300.5462 45.4779 16.5555 498200.4568 -8.0821 -8.5048
TCL: Setting parameter constraintScaling to 1.25
TCL: Running for 5000 steps
ETITLE: TS BOND ANGLE DIHED IMPRP ELECT VDW BOUNDARY MISC KINETIC TOTAL TEMP POTENTIAL TOTAL3 TEMPAVG PRESSURE GPRESSURE VOLUME PRESSAVG GPRESSAVG
ENERGY: 15000 1605.8652 2338.4101 3148.1239 0.0000 -175542.4848 20138.9170 240.9807 0.0000 30848.2316 -117221.9562 299.9282 -148070.1878 -117180.0251 299.9282 26.8111 13.6882 498200.4568 26.8111 13.6882
ENERGY: 16000 1620.2123 2332.8951 3195.5233 0.0000 -175659.3471 20032.4316 414.2618 0.0000 30956.9006 -117107.1224 300.9848 -148064.0231 -117063.9232 300.1816 -29.6420 24.2103 499354.9100 3.9389 3.4725
ENERGY: 17000 1657.0094 2309.3482 3187.7203 0.0000 -175506.3958 19959.3938 411.8892 0.0000 30605.8757 -117375.1592 297.5719 -147981.0350 -117327.9692 300.0742 -64.3892 -50.9759 498324.8084 -7.2260 -7.0373
ENERGY: 18000 1614.7482 2408.7804 3182.7891 0.0000 -175262.0220 19875.4885 404.9176 0.0000 30671.4730 -117103.8253 298.2097 -147775.2983 -117075.4942 299.6130 -147.4796 -46.8423 499530.9555 -1.5934 -1.5478
ENERGY: 19000 1703.2043 2394.3051 3185.3497 0.0000 -175431.7463 19726.0153 390.1642 0.0000 30816.7748 -117215.9329 299.6224 -148032.7077 -117159.7153 299.5394 -18.6922 -59.1788 497793.0639 -0.8115 -0.2410
ENERGY: 20000 1621.3429 2428.5022 3209.4503 0.0000 -175655.9877 19957.9482 415.9804 0.0000 30842.7631 -117180.0007 299.8751 -148022.7638 -117140.5511 299.7134 -54.8864 -16.6266 498896.0124 13.1639 12.8080
TCL: Setting parameter constraintScaling to 0.625
TCL: Running for 5000 steps
ETITLE: TS BOND ANGLE DIHED IMPRP ELECT VDW BOUNDARY MISC KINETIC TOTAL TEMP POTENTIAL TOTAL3 TEMPAVG PRESSURE GPRESSURE VOLUME PRESSAVG GPRESSAVG
ENERGY: 20000 1621.3429 2428.5022 3209.4503 0.0000 -175655.9877 19957.9482 207.9902 0.0000 30840.7042 -117390.0498 299.8551 -148230.7540 -117346.2428 299.8551 -126.1322 -81.6364 498896.0124 -126.1322 -81.6364
ENERGY: 21000 1618.9552 2415.7692 3194.7365 0.0000 -176304.4589 20132.5903 326.4008 0.0000 30666.9078 -117949.0991 298.1653 -148616.0069 -117905.6636 299.4554 -129.8244 -51.9244 496881.4282 -5.6249 -5.5516
ENERGY: 22000 1624.7122 2417.5373 3215.0206 0.0000 -175869.0728 19978.0423 319.4371 0.0000 30591.8526 -117722.4708 297.4356 -148314.3234 -117675.6241 297.8983 -12.2698 -14.9485 497300.2518 0.0718 -0.3446
ENERGY: 23000 1623.3791 2398.8458 3208.4350 0.0000 -176000.4588 20169.3906 310.8134 0.0000 30792.5259 -117497.0691 299.3866 -148289.5950 -117454.2182 300.2757 -80.1688 -54.9528 497095.3530 2.9850 2.3594
ENERGY: 24000 1602.0470 2433.1597 3183.4461 0.0000 -175668.6730 20109.4679 342.9551 0.0000 30673.7140 -117323.8831 298.2315 -147997.5971 -117271.0725 299.5956 59.2237 -17.8827 498826.1851 9.9843 10.3486
ENERGY: 25000 1695.2436 2418.9121 3200.7790 0.0000 -176115.0906 20047.9974 312.6183 0.0000 30895.3287 -117544.2115 300.3862 -148439.5402 -117497.0380 299.4149 -124.3136 -93.3352 497956.8815 -12.3277 -12.6042
TCL: Setting parameter constraintScaling to 0.3125
TCL: Running for 5000 steps
ETITLE: TS BOND ANGLE DIHED IMPRP ELECT VDW BOUNDARY MISC KINETIC TOTAL TEMP POTENTIAL TOTAL3 TEMPAVG PRESSURE GPRESSURE VOLUME PRESSAVG GPRESSAVG
ENERGY: 25000 1695.2436 2418.9121 3200.7790 0.0000 -176115.0906 20047.9974 156.3091 0.0000 30893.2623 -117702.5870 300.3661 -148595.8493 -117660.3881 300.3661 -146.4787 -118.3912 497956.8815 -146.4787 -118.3912
ENERGY: 26000 1647.7568 2372.1953 3196.8650 0.0000 -175926.1128 20073.0914 251.9911 0.0000 30686.2539 -117697.9593 298.3534 -148384.2132 -117655.4499 299.0589 42.4703 -15.4225 497132.4304 1.6640 1.4145
ENERGY: 27000 1617.2142 2403.1947 3171.4325 0.0000 -176300.2816 20105.0580 244.6470 0.0000 30969.0639 -117789.6714 301.1031 -148758.7353 -117751.7436 299.4614 15.8784 -11.6156 495393.4480 -0.9728 -0.7934
ENERGY: 28000 1610.7875 2451.4544 3181.0278 0.0000 -176230.0787 20158.4975 248.7464 0.0000 30976.0705 -117603.4945 301.1712 -148579.5650 -117549.9614 301.2084 -74.7409 -36.5973 497388.4354 12.4685 11.8730
ENERGY: 29000 1650.3886 2419.2673 3229.7581 0.0000 -176022.3130 20076.2385 252.9312 0.0000 30785.8540 -117607.8753 299.3218 -148393.7293 -117565.4882 299.3228 -111.7830 -27.0549 496804.3792 -6.4159 -6.6456
ENERGY: 30000 1583.4224 2415.4106 3186.8162 0.0000 -176357.7557 20232.8135 261.0419 0.0000 30968.2317 -117710.0195 301.0950 -148678.2512 -117653.3747 299.1096 -144.9489 -25.8238 497427.0985 2.8867 2.9197
TCL: Setting parameter constraintScaling to 0.15625
TCL: Running for 5000 steps
ETITLE: TS BOND ANGLE DIHED IMPRP ELECT VDW BOUNDARY MISC KINETIC TOTAL TEMP POTENTIAL TOTAL3 TEMPAVG PRESSURE GPRESSURE VOLUME PRESSAVG GPRESSAVG
ENERGY: 30000 1583.4224 2415.4106 3186.8162 0.0000 -176357.7557 20232.8135 130.5209 0.0000 30966.2156 -117842.5566 301.0754 -148808.7722 -117801.1579 301.0754 -194.3010 -65.3584 497427.0985 -194.3010 -65.3584
ENERGY: 31000 1666.5585 2376.9080 3239.1325 0.0000 -175883.3891 20096.8969 192.1065 0.0000 30868.6352 -117443.1514 300.1266 -148311.7866 -117413.3948 299.5328 -58.3017 29.1200 496564.6562 -4.6998 -5.3535
ENERGY: 32000 1570.8223 2403.5588 3204.5038 0.0000 -175647.7332 19908.9356 188.8614 0.0000 30999.3362 -117371.7151 301.3974 -148371.0514 -117328.3128 300.8884 -163.8174 -68.4094 497008.2537 0.4606 0.5650
ENERGY: 33000 1672.3857 2402.9203 3213.5280 0.0000 -175993.5969 20170.4853 210.8226 0.0000 30867.1950 -117456.2601 300.1126 -148323.4550 -117421.0184 299.1693 -71.9901 67.5723 498819.8102 2.1547 2.0658
ENERGY: 34000 1654.1917 2404.8035 3181.6236 0.0000 -175584.0713 19917.9605 198.3706 0.0000 30849.4848 -117377.6366 299.9404 -148227.1214 -117330.9825 300.6579 -62.5322 -85.3650 497585.4268 -10.2302 -10.3218
ENERGY: 35000 1669.2669 2439.6117 3168.4163 0.0000 -175870.1938 20122.4699 208.7093 0.0000 30770.7498 -117490.9699 299.1749 -148261.7197 -117454.9263 299.1510 -6.3492 -4.5030 498267.0578 8.6874 8.9630
TCL: Setting parameter constraintScaling to 0.078125
TCL: Running for 5000 steps
ETITLE: TS BOND ANGLE DIHED IMPRP ELECT VDW BOUNDARY MISC KINETIC TOTAL TEMP POTENTIAL TOTAL3 TEMPAVG PRESSURE GPRESSURE VOLUME PRESSAVG GPRESSAVG
ENERGY: 35000 1669.2669 2439.6117 3168.4163 0.0000 -175870.1938 20122.4699 104.3546 0.0000 30768.7479 -117597.3265 299.1555 -148366.0744 -117554.4770 299.1555 -27.1438 -29.1914 498267.0578 -27.1438 -29.1914
ENERGY: 36000 1716.2721 2396.5886 3221.9939 0.0000 -175991.5477 20110.6608 143.5009 0.0000 30779.4971 -117623.0344 299.2600 -148402.5315 -117579.0226 299.5564 8.8483 34.0206 497036.6816 2.6312 3.0555
ENERGY: 37000 1637.2060 2407.7904 3201.8832 0.0000 -176126.0109 20222.7784 147.7982 0.0000 30919.9681 -117588.5867 300.6257 -148508.5547 -117540.0729 300.3496 13.8619 14.2439 497481.9948 11.0621 11.0289
ENERGY: 38000 1678.4782 2391.6624 3225.0479 0.0000 -175769.2871 20131.3962 144.5285 0.0000 30766.6247 -117431.5492 299.1348 -148198.1739 -117380.2476 300.2711 -27.3087 66.2857 497284.8707 3.2971 3.2228
ENERGY: 39000 1664.0672 2348.2693 3234.8686 0.0000 -175663.2189 19797.7140 144.2375 0.0000 31002.5717 -117471.4907 301.4289 -148474.0624 -117431.5837 301.0282 -167.9431 -106.2367 495988.4736 0.5753 0.8673
ENERGY: 40000 1651.5352 2408.9287 3248.2149 0.0000 -175887.2045 19994.0361 149.5900 0.0000 30755.9835 -117678.9161 299.0313 -148434.8996 -117631.7911 300.3246 24.4785 5.4385 496045.7378 -7.6774 -7.3992
TCL: Setting parameter constraintScaling to 0.0390625
TCL: Running for 5000 steps
ETITLE: TS BOND ANGLE DIHED IMPRP ELECT VDW BOUNDARY MISC KINETIC TOTAL TEMP POTENTIAL TOTAL3 TEMPAVG PRESSURE GPRESSURE VOLUME PRESSAVG GPRESSAVG
ENERGY: 40000 1651.5352 2408.9287 3248.2149 0.0000 -175887.2045 19994.0361 74.7950 0.0000 30753.9370 -117755.7576 299.0114 -148509.6946 -117713.1430 299.0114 -5.4906 -14.7623 496045.7378 -5.4906 -14.7623
ENERGY: 41000 1644.7135 2398.8537 3221.5326 0.0000 -176248.5190 20110.0043 100.1500 0.0000 30875.5340 -117897.7310 300.1937 -148773.2650 -117850.9831 299.5323 -49.6720 -87.6411 496258.4322 6.8897 7.1366
ENERGY: 42000 1637.7348 2455.6596 3209.8262 0.0000 -176170.3377 19964.3477 107.7181 0.0000 30847.0552 -117947.9962 299.9168 -148795.0514 -117912.1318 299.3027 -23.8929 -17.7825 496079.2532 -0.0478 0.2467
ENERGY: 43000 1618.8673 2395.6760 3199.7866 0.0000 -175794.8377 19970.9966 122.8968 0.0000 30624.1636 -117862.4507 297.7497 -148486.6142 -117817.5615 299.4150 -39.1609 -3.5566 496816.1375 19.7230 19.4041
ENERGY: 44000 1589.0201 2392.6941 3188.6920 0.0000 -175534.6564 19801.6807 130.5654 0.0000 30948.5428 -117483.4612 300.9035 -148432.0040 -117430.4887 300.0634 -70.5567 -85.4619 496874.0579 -1.7833 -1.6699
ENERGY: 45000 1620.0993 2369.8391 3242.0520 0.0000 -175583.5928 19952.2731 131.7768 0.0000 30894.2009 -117373.3516 300.3752 -148267.5525 -117323.9486 300.2844 -13.2699 -26.1743 498730.4145 5.1009 5.4929
TCL: Setting parameter constraintScaling to 0.01953125
TCL: Running for 5000 steps
ETITLE: TS BOND ANGLE DIHED IMPRP ELECT VDW BOUNDARY MISC KINETIC TOTAL TEMP POTENTIAL TOTAL3 TEMPAVG PRESSURE GPRESSURE VOLUME PRESSAVG GPRESSAVG
ENERGY: 45000 1620.0993 2369.8391 3242.0520 0.0000 -175583.5928 19952.2731 65.8884 0.0000 30892.1806 -117441.2603 300.3556 -148333.4409 -117397.7682 300.3556 -29.6290 -38.6000 498730.4145 -29.6290 -38.6000
ENERGY: 46000 1663.1318 2391.0366 3207.1244 0.0000 -176011.6126 20133.0425 72.6443 0.0000 30709.7847 -117834.8483 298.5822 -148544.6330 -117801.4196 299.6377 -63.3211 -66.7292 497824.8002 -5.7847 -5.9173
ENERGY: 47000 1672.7270 2391.4755 3247.0037 0.0000 -176108.8336 20238.6818 81.4625 0.0000 30857.4600 -117620.0231 300.0180 -148477.4830 -117579.0555 300.7768 -28.2666 -2.0900 496953.6656 -8.0797 -8.3175
ENERGY: 48000 1567.4355 2415.8728 3205.0150 0.0000 -175673.5506 19927.7428 85.3865 0.0000 30993.3638 -117478.7342 301.3393 -148472.0980 -117431.9611 300.0992 -94.8701 -27.5298 497489.7027 5.6889 5.5899
ENERGY: 49000 1637.4130 2413.3062 3210.6233 0.0000 -175190.3294 19758.2124 86.5442 0.0000 30770.8366 -117313.3937 299.1758 -148084.2303 -117267.1120 300.5246 -152.2427 0.2242 497619.2095 -5.3926 -5.4375
ENERGY: 50000 1653.5463 2376.1708 3201.8390 0.0000 -176008.6045 20203.8517 94.8298 0.0000 30869.7220 -117608.6450 300.1372 -148478.3670 -117557.9374 300.2765 -73.9239 1.1426 496680.5960 4.7587 5.1093
TCL: Setting parameter constraintScaling to 0
TCL: Running for 5000 steps
ETITLE: TS BOND ANGLE DIHED IMPRP ELECT VDW BOUNDARY MISC KINETIC TOTAL TEMP POTENTIAL TOTAL3 TEMPAVG PRESSURE GPRESSURE VOLUME PRESSAVG GPRESSAVG
ENERGY: 50000 1653.5463 2376.1708 3201.8390 0.0000 -176008.6045 20203.8517 0.0000 0.0000 30867.6558 -117705.5410 300.1171 -148573.1968 -117665.0310 300.1171 -83.4325 -3.1603 496680.5960 -83.4325 -3.1603
ENERGY: 51000 1663.6118 2378.7111 3225.6458 0.0000 -175949.1315 20089.9249 0.0000 0.0000 30827.0948 -117764.1430 299.7227 -148591.2378 -117716.3417 299.5133 -95.3778 -26.3555 496784.5891 -4.9767 -4.7130
ENERGY: 52000 1594.6389 2423.4273 3230.5508 0.0000 -176397.9196 20313.1989 0.0000 0.0000 30754.4100 -118081.6937 299.0160 -148836.1036 -118042.5490 299.1452 125.9589 90.7365 497420.2550 0.3716 -0.2961
ENERGY: 53000 1633.5112 2427.3831 3203.1863 0.0000 -175748.1494 19926.1413 0.0000 0.0000 30818.5383 -117739.3892 299.6395 -148557.9274 -117687.5347 299.0377 13.0908 -1.3298 497862.5862 11.1216 11.5280
ENERGY: 54000 1610.7404 2352.7005 3193.2401 0.0000 -175559.6967 20024.2195 0.0000 0.0000 30657.6526 -117721.1436 298.0753 -148378.7962 -117677.7756 300.0718 -0.4803 41.8652 496305.6709 -5.6573 -5.9274
ENERGY: 55000 1640.3659 2442.0852 3253.2179 0.0000 -175925.8101 20059.7315 0.0000 0.0000 30779.4962 -117750.9133 299.2600 -148530.4095 -117710.6546 299.4217 -110.0494 -17.4660 495802.6280 -2.7936 -3.0548
