Info: SIMULATION PARAMETERS:
Info: TIMESTEP               2
Info: NUMBER OF STEPS        0
Info: STEPS PER CYCLE        10
Info: PERIODIC CELL BASIS 1  72.449 0 0
Info: PERIODIC CELL BASIS 2  0 93.247 0
Info: PERIODIC CELL BASIS 3  0 0 79.185
Info: PERIODIC CELL CENTER   -0.248 -0.156 -0.047
Info: WRAPPING WATERS AROUND PERIODIC BOUNDARIES ON OUTPUT.
Info: WRAPPING ALL CLUSTERS AROUND PERIODIC BOUNDARIES ON OUTPUT.
Info: FIRST LDB TIMESTEP     50
Info: LAST LDB TIMESTEP     -1
Info: HOM BACKGROUND SCALING 1
Info: PME BACKGROUND SCALING 1
Info: MIN ATOMS PER PATCH    40
Info: INITIAL TEMPERATURE    0
Info: CENTER OF MASS MOVING INITIALLY? NO
Info: DIELECTRIC             1
Info: EXCLUDE                SCALED ONE-FOUR
Info: 1-4 ELECTROSTATICS SCALED BY 0.833333
Info: MODIFIED 1-4 VDW PARAMETERS WILL BE USED
Info: NO DCD TRAJECTORY OUTPUT
Info: NO EXTENDED SYSTEM TRAJECTORY OUTPUT
Info: NO VELOCITY DCD OUTPUT
Info: NO FORCE DCD OUTPUT
Info: OUTPUT FILENAME        ../replicas/rep48/equilibration/eq0
Info: NO RESTART FILE
Info: SWITCHING ACTIVE
Info: SWITCHING ON           10
Info: SWITCHING OFF          12
Info: PAIRLIST DISTANCE      13.5
Info: PAIRLIST SHRINK RATE   0.01
Info: PAIRLIST GROW RATE     0.01
Info: PAIRLIST TRIGGER       0.3
Info: PAIRLISTS PER CYCLE    2
Info: PAIRLISTS ENABLED
Info: MARGIN                 0
Info: HYDROGEN GROUP CUTOFF  2.5
Info: PATCH DIMENSION        16
Info: ENERGY OUTPUT STEPS    500
Info: CROSSTERM ENERGY INCLUDED IN DIHEDRAL
Info: TIMING OUTPUT STEPS    5000
Info: PRESSURE OUTPUT STEPS  500
Info: HARMONIC CONSTRAINTS ACTIVE
Info: HARMONIC CONS EXP      2
Info: HARMONIC CONS SCALING  10
Info: CONJUGATE GRADIENT MINIMIZATION ACTIVE
Info: LINE MINIMIZATION GOAL = 0.001
Info: BABY STEP SIZE = 0.01
Info: TINY STEP SIZE = 1e-06
Info: PARTICLE MESH EWALD (PME) ACTIVE
Info: PME TOLERANCE               1e-06
Info: PME EWALD COEFFICIENT       0.257952
Info: PME INTERPOLATION ORDER     4
Info: PME GRID DIMENSIONS         80 96 80
Info: PME MAXIMUM GRID SPACING    1
Info: FULL ELECTROSTATIC EVALUATION FREQUENCY      2
Info: USING VERLET I (r-RESPA) MTS SCHEME.
Info: C1 SPLITTING OF LONG RANGE ELECTROSTATICS
Info: PLACING ATOMS IN PATCHES BY HYDROGEN GROUPS
Info: RIGID BONDS TO HYDROGEN : ALL
Info:         ERROR TOLERANCE : 1e-05
Info:          MAX ITERATIONS : 100
Info: RIGID WATER USING SETTLE ALGORITHM
Info: RANDOM NUMBER SEED     1503693043
Info: USE HYDROGEN BONDS?    NO
Info: Using AMBER format force field!
Info: AMBER PARM FILE        ../build/complex.top
Info: COORDINATE PDB         ../build/complex.pdb
Info: Exclusions in PARM file will be ignored!
Info: SCNB (VDW SCALING)     2
Info: USING ARITHMETIC MEAN TO COMBINE L-J SIGMA PARAMETERS
Info: SUMMARY OF PARAMETERS:
Info: 71 BONDS
Info: 145 ANGLES
Info: 76 DIHEDRAL
Info: 0 IMPROPER
Info: 0 CROSSTERM
Info: 0 VDW
Info: 190 VDW_PAIRS
Info: 0 NBTHOLE_PAIRS
Info: STRUCTURE SUMMARY:
Info: 49394 ATOMS
Info: 49448 BONDS
Info: 8698 ANGLES
Info: 18780 DIHEDRALS
Info: 0 IMPROPERS
Info: 0 CROSSTERMS
Info: 0 EXCLUSIONS
Info: 2336 CONSTRAINTS
Info: 47058 RIGID BONDS
Info: 101124 DEGREES OF FREEDOM
Info: 17225 HYDROGEN GROUPS
Info: 4 ATOMS IN LARGEST HYDROGEN GROUP
Info: 17225 MIGRATION GROUPS
Info: 4 ATOMS IN LARGEST MIGRATION GROUP
Info: TOTAL MASS = 301478 amu
Info: TOTAL CHARGE = 1.00115e-05 e
Info: MASS DENSITY = 0.935846 g/cm^3
Info: ATOM DENSITY = 0.0923345 atoms/A^3
Info: ADDED 70656 IMPLICIT EXCLUSIONS
Info: NONBONDED TABLE R-SQUARED SPACING: 0.0625
Info: NONBONDED TABLE SIZE: 769 POINTS
Info: REMOVING COM VELOCITY 0 0 0
TCL: Minimizing for 100 steps
ETITLE: TS BOND ANGLE DIHED IMPRP ELECT VDW BOUNDARY MISC KINETIC TOTAL TEMP POTENTIAL TOTAL3 TEMPAVG PRESSURE GPRESSURE VOLUME PRESSAVG GPRESSAVG
ENERGY: 0 155.4176 1012.2698 2855.7272 0.0000 -154496.7913 207729.2052 0.0468 0.0000 0.0000 57255.8753 0.0000 57255.8753 57255.8753 0.0000 116350.2532 86546.1670 534946.2959 116350.2532 86546.1670
ENERGY: 20 304.7567 935.7913 2893.4663 0.0000 -158672.9417 17936.6587 143.9455 0.0000 0.0000 -136458.3231 0.0000 -136458.3231 -136458.3231 0.0000 16523.9379 -239.4566 534946.2959 16523.9379 -239.4566
ENERGY: 40 198.7466 799.5731 2896.9273 0.0000 -162811.4519 16417.9540 221.3030 0.0000 0.0000 -142276.9478 0.0000 -142276.9478 -142276.9478 0.0000 15011.2706 -2135.4694 534946.2959 15011.2706 -2135.4694
ENERGY: 60 130.5281 715.3440 2898.2166 0.0000 -167496.1573 15446.7538 315.2796 0.0000 0.0000 -147990.0351 0.0000 -147990.0351 -147990.0351 0.0000 13793.8835 -3799.3988 534946.2959 13793.8835 -3799.3988
ENERGY: 80 431.2704 765.6302 2904.3788 0.0000 -169937.5352 15121.1517 372.0124 0.0000 0.0000 -150343.0916 0.0000 -150343.0916 -150343.0916 0.0000 13270.3294 -4577.2462 534946.2959 13270.3294 -4577.2462
ENERGY: 100 119.3839 710.0600 2905.2592 0.0000 -171259.7094 14991.7871 387.3613 0.0000 0.0000 -152145.8578 0.0000 -152145.8578 -152145.8578 0.0000 13056.2659 -4908.1713 534946.2959 13056.2659 -4908.1713
TCL: Setting parameter constraintScaling to 5.0
TCL: Minimizing for 100 steps
ETITLE: TS BOND ANGLE DIHED IMPRP ELECT VDW BOUNDARY MISC KINETIC TOTAL TEMP POTENTIAL TOTAL3 TEMPAVG PRESSURE GPRESSURE VOLUME PRESSAVG GPRESSAVG
ENERGY: 100 119.3839 710.0600 2905.2592 0.0000 -171259.7094 14991.7871 193.6807 0.0000 0.0000 -152339.5385 0.0000 -152339.5385 -152339.5385 0.0000 13672.7720 -23021.8176 534946.2959 13672.7720 -23021.8176
ENERGY: 120 108.8810 687.5834 2912.9265 0.0000 -172865.8879 14798.2706 281.1917 0.0000 0.0000 -154077.0348 0.0000 -154077.0348 -154077.0348 0.0000 13218.2543 -4906.0179 534946.2959 13218.2543 -4906.0179
ENERGY: 140 309.4002 708.8628 2913.8024 0.0000 -174236.7176 14731.4788 326.6406 0.0000 0.0000 -155246.5327 0.0000 -155246.5327 -155246.5327 0.0000 12971.5233 -5303.2527 534946.2959 12971.5233 -5303.2527
ENERGY: 160 265.3431 683.1476 2923.1805 0.0000 -176275.9190 14757.3704 382.9111 0.0000 0.0000 -157263.9664 0.0000 -157263.9664 -157263.9664 0.0000 12740.8844 -5736.7061 534946.2959 12740.8844 -5736.7061
ENERGY: 180 268.8224 744.0967 2928.5663 0.0000 -178995.7942 15023.5781 473.3222 0.0000 0.0000 -159557.4085 0.0000 -159557.4085 -159557.4085 0.0000 12521.5827 -6217.4575 534946.2959 12521.5827 -6217.4575
ENERGY: 200 238.9795 694.0846 2941.3677 0.0000 -181556.6309 15587.1379 546.2727 0.0000 0.0000 -161548.7885 0.0000 -161548.7885 -161548.7885 0.0000 12582.6532 -6424.4348 534946.2959 12582.6532 -6424.4348
TCL: Setting parameter constraintScaling to 2.5
TCL: Minimizing for 100 steps
ETITLE: TS BOND ANGLE DIHED IMPRP ELECT VDW BOUNDARY MISC KINETIC TOTAL TEMP POTENTIAL TOTAL3 TEMPAVG PRESSURE GPRESSURE VOLUME PRESSAVG GPRESSAVG
ENERGY: 200 238.9795 694.0846 2941.3677 0.0000 -181556.6309 15587.1379 273.1364 0.0000 0.0000 -161821.9249 0.0000 -161821.9249 -161821.9249 0.0000 13229.5688 -25655.2710 534946.2959 13229.5688 -25655.2710
ENERGY: 220 251.1232 679.8810 2933.0255 0.0000 -182082.9567 15471.0430 338.5417 0.0000 0.0000 -162409.3422 0.0000 -162409.3422 -162409.3422 0.0000 12968.1068 -6094.4383 534946.2959 12968.1068 -6094.4383
ENERGY: 240 139.3178 665.7868 2928.6055 0.0000 -182462.5541 15494.3171 343.5670 0.0000 0.0000 -162890.9599 0.0000 -162890.9599 -162890.9599 0.0000 13034.3822 -6107.4131 534946.2959 13034.3822 -6107.4131
ENERGY: 260 164.3983 683.7550 2921.6007 0.0000 -183940.9149 15800.0515 385.5058 0.0000 0.0000 -163985.6035 0.0000 -163985.6035 -163985.6035 0.0000 13031.7648 -6246.4348 534946.2959 13031.7648 -6246.4348
ENERGY: 280 168.9721 700.8391 2917.5956 0.0000 -185421.7675 16228.3244 454.8640 0.0000 0.0000 -164951.1722 0.0000 -164951.1722 -164951.1722 0.0000 13143.1639 -6338.5729 534946.2959 13143.1639 -6338.5729
ENERGY: 300 126.6784 639.5249 2916.2501 0.0000 -186093.6673 16445.3216 481.3695 0.0000 0.0000 -165484.5228 0.0000 -165484.5228 -165484.5228 0.0000 13207.5035 -6342.6393 534946.2959 13207.5035 -6342.6393
TCL: Setting parameter constraintScaling to 1.25
TCL: Minimizing for 100 steps
ETITLE: TS BOND ANGLE DIHED IMPRP ELECT VDW BOUNDARY MISC KINETIC TOTAL TEMP POTENTIAL TOTAL3 TEMPAVG PRESSURE GPRESSURE VOLUME PRESSAVG GPRESSAVG
ENERGY: 300 126.6784 639.5249 2916.2501 0.0000 -186093.6673 16445.3216 240.6847 0.0000 0.0000 -165725.2076 0.0000 -165725.2076 -165725.2076 0.0000 13655.8435 -26352.5169 534946.2959 13655.8435 -26352.5169
ENERGY: 320 140.5719 639.1619 2911.3744 0.0000 -186779.0513 16609.3747 282.7556 0.0000 0.0000 -166195.8128 0.0000 -166195.8128 -166195.8128 0.0000 13601.4025 -6009.3502 534946.2959 13601.4025 -6009.3502
ENERGY: 340 233.6025 631.0891 2909.6193 0.0000 -187329.0163 16799.4602 292.7007 0.0000 0.0000 -166462.5444 0.0000 -166462.5444 -166462.5444 0.0000 13673.6936 -5994.5520 534946.2959 13673.6936 -5994.5520
ENERGY: 360 181.1041 673.4929 2908.3643 0.0000 -188790.7510 17299.2667 345.9167 0.0000 0.0000 -167382.6063 0.0000 -167382.6063 -167382.6063 0.0000 13872.7604 -5993.8400 534946.2959 13872.7604 -5993.8400
ENERGY: 380 189.5095 646.5132 2900.9258 0.0000 -190407.7193 17934.4377 400.7793 0.0000 0.0000 -168335.5538 0.0000 -168335.5538 -168335.5538 0.0000 14029.5100 -5975.8213 534946.2959 14029.5100 -5975.8213
ENERGY: 400 143.0465 637.7850 2898.3480 0.0000 -191054.5762 18178.9220 415.8473 0.0000 0.0000 -168780.6274 0.0000 -168780.6274 -168780.6274 0.0000 14220.7368 -5887.9760 534946.2959 14220.7368 -5887.9760
TCL: Setting parameter constraintScaling to 0.625
TCL: Minimizing for 100 steps
ETITLE: TS BOND ANGLE DIHED IMPRP ELECT VDW BOUNDARY MISC KINETIC TOTAL TEMP POTENTIAL TOTAL3 TEMPAVG PRESSURE GPRESSURE VOLUME PRESSAVG GPRESSAVG
ENERGY: 400 143.0465 637.7850 2898.3480 0.0000 -191054.5762 18178.9220 207.9236 0.0000 0.0000 -168988.5511 0.0000 -168988.5511 -168988.5511 0.0000 14528.1199 -26640.4269 534946.2959 14528.1199 -26640.4269
ENERGY: 420 150.3118 626.9567 2893.4560 0.0000 -191417.6685 18253.3471 227.2930 0.0000 0.0000 -169266.3040 0.0000 -169266.3040 -169266.3040 0.0000 14460.4511 -5674.0227 534946.2959 14460.4511 -5674.0227
ENERGY: 440 335.9128 651.1693 2892.2151 0.0000 -191913.7580 18403.7731 244.2147 0.0000 0.0000 -169386.4731 0.0000 -169386.4731 -169386.4731 0.0000 14428.6564 -5735.0247 534946.2959 14428.6564 -5735.0247
ENERGY: 460 374.5776 713.7832 2890.6318 0.0000 -192800.4016 18704.9195 269.4026 0.0000 0.0000 -169847.0868 0.0000 -169847.0868 -169847.0868 0.0000 14684.3937 -5660.9813 534946.2959 14684.3937 -5660.9813
ENERGY: 480 168.8201 643.0005 2884.7788 0.0000 -193227.9970 18865.5079 279.3998 0.0000 0.0000 -170386.4900 0.0000 -170386.4900 -170386.4900 0.0000 14649.2521 -5681.5407 534946.2959 14649.2521 -5681.5407
ENERGY: 500 161.5445 658.0981 2882.7697 0.0000 -193712.8755 19048.9971 287.8812 0.0000 0.0000 -170673.5849 0.0000 -170673.5849 -170673.5849 0.0000 14809.9013 -5598.8479 534946.2959 14809.9013 -5598.8479
TCL: Setting parameter constraintScaling to 0.3125
TCL: Minimizing for 100 steps
ETITLE: TS BOND ANGLE DIHED IMPRP ELECT VDW BOUNDARY MISC KINETIC TOTAL TEMP POTENTIAL TOTAL3 TEMPAVG PRESSURE GPRESSURE VOLUME PRESSAVG GPRESSAVG
ENERGY: 500 161.5445 658.0981 2882.7697 0.0000 -193712.8755 19048.9971 143.9406 0.0000 0.0000 -170817.5255 0.0000 -170817.5255 -170817.5255 0.0000 14997.6478 -26796.4796 534946.2959 14997.6478 -26796.4796
ENERGY: 520 175.9351 644.5912 2882.5548 0.0000 -193976.0006 19132.0201 154.5658 0.0000 0.0000 -170986.3336 0.0000 -170986.3336 -170986.3336 0.0000 14915.0648 -5492.8644 534946.2959 14915.0648 -5492.8644
ENERGY: 540 207.0343 653.3573 2879.3010 0.0000 -195196.9175 19575.5337 188.1990 0.0000 0.0000 -171693.4922 0.0000 -171693.4922 -171693.4922 0.0000 15065.1860 -5471.0486 534946.2959 15065.1860 -5471.0486
ENERGY: 560 157.5682 652.0653 2873.4440 0.0000 -195330.6288 19623.0198 189.2437 0.0000 0.0000 -171835.2878 0.0000 -171835.2878 -171835.2878 0.0000 15168.9120 -5414.9487 534946.2959 15168.9120 -5414.9487
ENERGY: 580 398.5085 709.4687 2874.3500 0.0000 -196562.0220 20104.4099 204.9329 0.0000 0.0000 -172270.3519 0.0000 -172270.3519 -172270.3519 0.0000 15424.0550 -5319.1057 534946.2959 15424.0550 -5319.1057
ENERGY: 600 149.9068 631.1598 2863.8352 0.0000 -197470.5514 20492.4716 222.6318 0.0000 0.0000 -173110.5463 0.0000 -173110.5463 -173110.5463 0.0000 15568.7289 -5252.4377 534946.2959 15568.7289 -5252.4377
TCL: Setting parameter constraintScaling to 0.15625
TCL: Minimizing for 100 steps
ETITLE: TS BOND ANGLE DIHED IMPRP ELECT VDW BOUNDARY MISC KINETIC TOTAL TEMP POTENTIAL TOTAL3 TEMPAVG PRESSURE GPRESSURE VOLUME PRESSAVG GPRESSAVG
ENERGY: 600 149.9068 631.1598 2863.8352 0.0000 -197470.5514 20492.4716 111.3159 0.0000 0.0000 -173221.8622 0.0000 -173221.8622 -173221.8622 0.0000 15691.9645 -26992.3871 534946.2959 15691.9645 -26992.3871
ENERGY: 620 291.4787 663.9591 2857.2038 0.0000 -198226.6475 20750.5337 132.0064 0.0000 0.0000 -173531.4658 0.0000 -173531.4658 -173531.4658 0.0000 15712.4470 -5185.5727 534946.2959 15712.4470 -5185.5727
ENERGY: 640 160.7120 641.8249 2854.5214 0.0000 -198229.3907 20740.7539 127.5191 0.0000 0.0000 -173704.0595 0.0000 -173704.0595 -173704.0595 0.0000 15763.1412 -5145.5386 534946.2959 15763.1412 -5145.5386
ENERGY: 660 154.0933 641.2339 2853.6616 0.0000 -198823.7242 20956.3892 133.0170 0.0000 0.0000 -174085.3293 0.0000 -174085.3293 -174085.3293 0.0000 15887.4683 -5095.7564 534946.2959 15887.4683 -5095.7564
ENERGY: 680 259.3274 649.7493 2841.5288 0.0000 -200098.6412 21458.4069 154.5706 0.0000 0.0000 -174735.0582 0.0000 -174735.0582 -174735.0582 0.0000 16059.4091 -5056.6568 534946.2959 16059.4091 -5056.6568
ENERGY: 700 162.6146 647.5328 2838.7068 0.0000 -200518.9983 21629.6771 160.8000 0.0000 0.0000 -175079.6670 0.0000 -175079.6670 -175079.6670 0.0000 16182.4688 -4999.7958 534946.2959 16182.4688 -4999.7958
TCL: Setting parameter constraintScaling to 0.078125
TCL: Minimizing for 100 steps
ETITLE: TS BOND ANGLE DIHED IMPRP ELECT VDW BOUNDARY MISC KINETIC TOTAL TEMP POTENTIAL TOTAL3 TEMPAVG PRESSURE GPRESSURE VOLUME PRESSAVG GPRESSAVG
ENERGY: 700 162.6146 647.5328 2838.7068 0.0000 -200518.9983 21629.6771 80.4000 0.0000 0.0000 -175160.0670 0.0000 -175160.0670 -175160.0670 0.0000 16258.6266 -27152.9501 534946.2959 16258.6266 -27152.9501
ENERGY: 720 160.8255 641.5665 2837.8206 0.0000 -200682.5516 21684.7413 81.8943 0.0000 0.0000 -175275.7033 0.0000 -175275.7033 -175275.7033 0.0000 16270.8077 -4923.2299 534946.2959 16270.8077 -4923.2299
ENERGY: 740 163.6255 644.1324 2835.9677 0.0000 -200867.5718 21748.0746 83.6051 0.0000 0.0000 -175392.1665 0.0000 -175392.1665 -175392.1665 0.0000 16305.9453 -4911.5724 534946.2959 16305.9453 -4911.5724
ENERGY: 760 195.1577 648.3686 2832.1157 0.0000 -201424.4102 21949.2726 89.2293 0.0000 0.0000 -175710.2662 0.0000 -175710.2662 -175710.2662 0.0000 16391.6829 -4890.1603 534946.2959 16391.6829 -4890.1603
ENERGY: 780 402.9489 699.5508 2830.0104 0.0000 -201786.0329 22089.5192 91.7977 0.0000 0.0000 -175672.2060 0.0000 -175672.2060 -175672.2060 0.0000 16443.0174 -4875.2481 534946.2959 16443.0174 -4875.2481
ENERGY: 800 167.2437 642.5419 2828.9875 0.0000 -202198.9440 22245.0492 95.2062 0.0000 0.0000 -176219.9154 0.0000 -176219.9154 -176219.9154 0.0000 16546.5671 -4828.1017 534946.2959 16546.5671 -4828.1017
TCL: Setting parameter constraintScaling to 0.0390625
TCL: Minimizing for 100 steps
ETITLE: TS BOND ANGLE DIHED IMPRP ELECT VDW BOUNDARY MISC KINETIC TOTAL TEMP POTENTIAL TOTAL3 TEMPAVG PRESSURE GPRESSURE VOLUME PRESSAVG GPRESSAVG
ENERGY: 800 167.2437 642.5419 2828.9875 0.0000 -202198.9440 22245.0492 47.6031 0.0000 0.0000 -176267.5185 0.0000 -176267.5185 -176267.5185 0.0000 16588.7600 -27227.5523 534946.2959 16588.7600 -27227.5523
ENERGY: 820 160.5678 647.0937 2827.8718 0.0000 -202377.2985 22312.7987 48.7274 0.0000 0.0000 -176380.2390 0.0000 -176380.2390 -176380.2390 0.0000 16621.0164 -4778.0145 534946.2959 16621.0164 -4778.0145
ENERGY: 840 179.3420 654.3123 2824.3395 0.0000 -202752.0863 22457.4350 50.7723 0.0000 0.0000 -176585.8852 0.0000 -176585.8852 -176585.8852 0.0000 16688.6208 -4752.4976 534946.2959 16688.6208 -4752.4976
ENERGY: 860 161.4806 647.9543 2821.9712 0.0000 -203109.6503 22602.4974 52.8335 0.0000 0.0000 -176822.9133 0.0000 -176822.9133 -176822.9133 0.0000 16750.4111 -4729.9734 534946.2959 16750.4111 -4729.9734
ENERGY: 880 292.6150 682.3835 2821.1762 0.0000 -203563.4452 22795.9001 54.9482 0.0000 0.0000 -176916.4222 0.0000 -176916.4222 -176916.4222 0.0000 16816.7324 -4732.4102 534946.2959 16816.7324 -4732.4102
ENERGY: 900 235.5475 672.5411 2820.6188 0.0000 -204520.5191 23232.1939 60.0402 0.0000 0.0000 -177499.5776 0.0000 -177499.5776 -177499.5776 0.0000 17060.2762 -4594.1464 534946.2959 17060.2762 -4594.1464
TCL: Setting parameter constraintScaling to 0.01953125
TCL: Minimizing for 100 steps
ETITLE: TS BOND ANGLE DIHED IMPRP ELECT VDW BOUNDARY MISC KINETIC TOTAL TEMP POTENTIAL TOTAL3 TEMPAVG PRESSURE GPRESSURE VOLUME PRESSAVG GPRESSAVG
ENERGY: 900 235.5475 672.5411 2820.6188 0.0000 -204520.5191 23232.1939 30.0201 0.0000 0.0000 -177529.5977 0.0000 -177529.5977 -177529.5977 0.0000 17084.8526 -27284.7067 534946.2959 17084.8526 -27284.7067
ENERGY: 920 337.2354 673.2011 2816.4693 0.0000 -204694.4390 23312.0231 30.6491 0.0000 0.0000 -177524.8609 0.0000 -177524.8609 -177524.8609 0.0000 17096.1668 -4568.7556 534946.2959 17096.1668 -4568.7556
ENERGY: 940 170.8522 658.3165 2812.4637 0.0000 -204906.4388 23398.6811 31.3828 0.0000 0.0000 -177834.7424 0.0000 -177834.7424 -177834.7424 0.0000 17191.2884 -4506.2965 534946.2959 17191.2884 -4506.2965
ENERGY: 960 164.4026 651.8028 2810.6784 0.0000 -205180.5057 23516.3046 32.3916 0.0000 0.0000 -178004.9257 0.0000 -178004.9257 -178004.9257 0.0000 17242.8040 -4480.1566 534946.2959 17242.8040 -4480.1566
ENERGY: 980 186.9154 664.0058 2810.5921 0.0000 -205465.2795 23627.6992 33.0239 0.0000 0.0000 -178143.0432 0.0000 -178143.0432 -178143.0432 0.0000 17304.1950 -4453.2086 534946.2959 17304.1950 -4453.2086
ENERGY: 1000 161.9356 650.7077 2808.5144 0.0000 -205909.0906 23848.8306 34.4497 0.0000 0.0000 -178404.6526 0.0000 -178404.6526 -178404.6526 0.0000 17414.1441 -4394.4420 534946.2959 17414.1441 -4394.4420
TCL: Setting parameter constraintScaling to 0
TCL: Minimizing for 5000 steps
ETITLE: TS BOND ANGLE DIHED IMPRP ELECT VDW BOUNDARY MISC KINETIC TOTAL TEMP POTENTIAL TOTAL3 TEMPAVG PRESSURE GPRESSURE VOLUME PRESSAVG GPRESSAVG
ENERGY: 1000 161.9356 650.7077 2808.5144 0.0000 -205909.0906 23848.8306 0.0000 0.0000 0.0000 -178439.1023 0.0000 -178439.1023 -178439.1023 0.0000 17441.1325 -27263.6085 534946.2959 17441.1325 -27263.6085
ENERGY: 2000 168.3533 662.1952 2799.0941 0.0000 -215103.9705 27985.7790 0.0000 0.0000 0.0000 -183488.5487 0.0000 -183488.5487 -183488.5487 0.0000 19648.9556 -3190.6456 534946.2959 19648.9556 -3190.6456
ENERGY: 3000 176.7881 667.1618 2794.7664 0.0000 -217575.6524 28910.5476 0.0000 0.0000 0.0000 -185026.3885 0.0000 -185026.3885 -185026.3885 0.0000 20123.3620 -2972.0002 534946.2959 20123.3620 -2972.0002
ENERGY: 4000 166.9536 665.3342 2786.9105 0.0000 -218725.1915 29353.7358 0.0000 0.0000 0.0000 -185752.2573 0.0000 -185752.2573 -185752.2573 0.0000 20357.4806 -2852.4488 534946.2959 20357.4806 -2852.4488
ENERGY: 5000 166.5553 667.0908 2787.2509 0.0000 -219433.2121 29646.2798 0.0000 0.0000 0.0000 -186166.0353 0.0000 -186166.0353 -186166.0353 0.0000 20510.8835 -2775.6536 534946.2959 20510.8835 -2775.6536
ENERGY: 6000 166.8838 667.8319 2785.5865 0.0000 -219874.4470 29830.5417 0.0000 0.0000 0.0000 -186423.6031 0.0000 -186423.6031 -186423.6031 0.0000 20608.3430 -2721.4670 534946.2959 20608.3430 -2721.4670
