Info: SIMULATION PARAMETERS:
Info: TIMESTEP               2
Info: NUMBER OF STEPS        0
Info: STEPS PER CYCLE        10
Info: PERIODIC CELL BASIS 1  72.449 0 0
Info: PERIODIC CELL BASIS 2  0 93.247 0
Info: PERIODIC CELL BASIS 3  0 0 79.185
Info: PERIODIC CELL CENTER   -0.248 -0.156 -0.047
Info: WRAPPING WATERS AROUND PERIODIC BOUNDARIES ON OUTPUT.
Info: WRAPPING ALL CLUSTERS AROUND PERIODIC BOUNDARIES ON OUTPUT.
Info: FIRST LDB TIMESTEP     50
Info: LAST LDB TIMESTEP     -1
Info: HOM BACKGROUND SCALING 1
Info: PME BACKGROUND SCALING 1
Info: MIN ATOMS PER PATCH    40
Info: INITIAL TEMPERATURE    0
Info: CENTER OF MASS MOVING INITIALLY? NO
Info: DIELECTRIC             1
Info: EXCLUDE                SCALED ONE-FOUR
Info: 1-4 ELECTROSTATICS SCALED BY 0.833333
Info: MODIFIED 1-4 VDW PARAMETERS WILL BE USED
Info: NO DCD TRAJECTORY OUTPUT
Info: NO EXTENDED SYSTEM TRAJECTORY OUTPUT
Info: NO VELOCITY DCD OUTPUT
Info: NO FORCE DCD OUTPUT
Info: OUTPUT FILENAME        ../replicas/rep75/equilibration/eq0
Info: NO RESTART FILE
Info: SWITCHING ACTIVE
Info: SWITCHING ON           10
Info: SWITCHING OFF          12
Info: PAIRLIST DISTANCE      13.5
Info: PAIRLIST SHRINK RATE   0.01
Info: PAIRLIST GROW RATE     0.01
Info: PAIRLIST TRIGGER       0.3
Info: PAIRLISTS PER CYCLE    2
Info: PAIRLISTS ENABLED
Info: MARGIN                 0
Info: HYDROGEN GROUP CUTOFF  2.5
Info: PATCH DIMENSION        16
Info: ENERGY OUTPUT STEPS    500
Info: CROSSTERM ENERGY INCLUDED IN DIHEDRAL
Info: TIMING OUTPUT STEPS    5000
Info: PRESSURE OUTPUT STEPS  500
Info: HARMONIC CONSTRAINTS ACTIVE
Info: HARMONIC CONS EXP      2
Info: HARMONIC CONS SCALING  10
Info: CONJUGATE GRADIENT MINIMIZATION ACTIVE
Info: LINE MINIMIZATION GOAL = 0.001
Info: BABY STEP SIZE = 0.01
Info: TINY STEP SIZE = 1e-06
Info: PARTICLE MESH EWALD (PME) ACTIVE
Info: PME TOLERANCE               1e-06
Info: PME EWALD COEFFICIENT       0.257952
Info: PME INTERPOLATION ORDER     4
Info: PME GRID DIMENSIONS         80 96 80
Info: PME MAXIMUM GRID SPACING    1
Info: FULL ELECTROSTATIC EVALUATION FREQUENCY      2
Info: USING VERLET I (r-RESPA) MTS SCHEME.
Info: C1 SPLITTING OF LONG RANGE ELECTROSTATICS
Info: PLACING ATOMS IN PATCHES BY HYDROGEN GROUPS
Info: RIGID BONDS TO HYDROGEN : ALL
Info:         ERROR TOLERANCE : 1e-05
Info:          MAX ITERATIONS : 100
Info: RIGID WATER USING SETTLE ALGORITHM
Info: RANDOM NUMBER SEED     1503693043
Info: USE HYDROGEN BONDS?    NO
Info: Using AMBER format force field!
Info: AMBER PARM FILE        ../build/complex.top
Info: COORDINATE PDB         ../build/complex.pdb
Info: Exclusions in PARM file will be ignored!
Info: SCNB (VDW SCALING)     2
Info: USING ARITHMETIC MEAN TO COMBINE L-J SIGMA PARAMETERS
Info: SUMMARY OF PARAMETERS:
Info: 71 BONDS
Info: 145 ANGLES
Info: 76 DIHEDRAL
Info: 0 IMPROPER
Info: 0 CROSSTERM
Info: 0 VDW
Info: 190 VDW_PAIRS
Info: 0 NBTHOLE_PAIRS
Info: STRUCTURE SUMMARY:
Info: 49394 ATOMS
Info: 49448 BONDS
Info: 8698 ANGLES
Info: 18780 DIHEDRALS
Info: 0 IMPROPERS
Info: 0 CROSSTERMS
Info: 0 EXCLUSIONS
Info: 2336 CONSTRAINTS
Info: 47058 RIGID BONDS
Info: 101124 DEGREES OF FREEDOM
Info: 17225 HYDROGEN GROUPS
Info: 4 ATOMS IN LARGEST HYDROGEN GROUP
Info: 17225 MIGRATION GROUPS
Info: 4 ATOMS IN LARGEST MIGRATION GROUP
Info: TOTAL MASS = 301478 amu
Info: TOTAL CHARGE = 1.00115e-05 e
Info: MASS DENSITY = 0.935846 g/cm^3
Info: ATOM DENSITY = 0.0923345 atoms/A^3
Info: ADDED 70656 IMPLICIT EXCLUSIONS
Info: NONBONDED TABLE R-SQUARED SPACING: 0.0625
Info: NONBONDED TABLE SIZE: 769 POINTS
Info: REMOVING COM VELOCITY 0 0 0
TCL: Minimizing for 100 steps
ETITLE: TS BOND ANGLE DIHED IMPRP ELECT VDW BOUNDARY MISC KINETIC TOTAL TEMP POTENTIAL TOTAL3 TEMPAVG PRESSURE GPRESSURE VOLUME PRESSAVG GPRESSAVG
ENERGY: 0 155.4176 1012.2698 2855.7272 0.0000 -154496.7911 207729.2052 0.0468 0.0000 0.0000 57255.8755 0.0000 57255.8755 57255.8755 0.0000 116350.2532 86546.1670 534946.2959 116350.2532 86546.1670
ENERGY: 20 304.7560 935.7912 2893.4663 0.0000 -158672.9412 17936.6591 143.9455 0.0000 0.0000 -136458.3231 0.0000 -136458.3231 -136458.3231 0.0000 16523.9383 -239.4562 534946.2959 16523.9383 -239.4562
ENERGY: 40 198.7451 799.5729 2896.9273 0.0000 -162811.4523 16417.9539 221.3030 0.0000 0.0000 -142276.9501 0.0000 -142276.9501 -142276.9501 0.0000 15011.2705 -2135.4695 534946.2959 15011.2705 -2135.4695
ENERGY: 60 130.5282 715.3440 2898.2166 0.0000 -167496.1563 15446.7540 315.2796 0.0000 0.0000 -147990.0338 0.0000 -147990.0338 -147990.0338 0.0000 13793.8839 -3799.3984 534946.2959 13793.8839 -3799.3984
ENERGY: 80 431.2717 765.6305 2904.3787 0.0000 -169937.5297 15121.1523 372.0123 0.0000 0.0000 -150343.0843 0.0000 -150343.0843 -150343.0843 0.0000 13270.3307 -4577.2446 534946.2959 13270.3307 -4577.2446
ENERGY: 100 129.7129 708.0645 2904.2781 0.0000 -171050.0629 15018.6540 384.2000 0.0000 0.0000 -151905.1534 0.0000 -151905.1534 -151905.1534 0.0000 13092.9134 -4843.6302 534946.2959 13092.9134 -4843.6302
TCL: Setting parameter constraintScaling to 5.0
TCL: Minimizing for 100 steps
ETITLE: TS BOND ANGLE DIHED IMPRP ELECT VDW BOUNDARY MISC KINETIC TOTAL TEMP POTENTIAL TOTAL3 TEMPAVG PRESSURE GPRESSURE VOLUME PRESSAVG GPRESSAVG
ENERGY: 100 129.7129 708.0645 2904.2781 0.0000 -171050.0629 15018.6540 192.1000 0.0000 0.0000 -152097.2534 0.0000 -152097.2534 -152097.2534 0.0000 13703.5085 -22944.4533 534946.2959 13703.5085 -22944.4533
ENERGY: 120 118.6818 680.2874 2909.9066 0.0000 -172396.3085 14830.1208 259.9548 0.0000 0.0000 -153597.3570 0.0000 -153597.3570 -153597.3570 0.0000 13320.9481 -4756.3059 534946.2959 13320.9481 -4756.3059
ENERGY: 140 109.1477 671.1468 2912.0863 0.0000 -174830.2510 14716.1439 337.7305 0.0000 0.0000 -156083.9957 0.0000 -156083.9957 -156083.9957 0.0000 12908.9604 -5423.1437 534946.2959 12908.9604 -5423.1437
ENERGY: 160 125.8507 667.1507 2914.1925 0.0000 -175967.0532 14735.1346 362.9189 0.0000 0.0000 -157161.8057 0.0000 -157161.8057 -157161.8057 0.0000 12806.8944 -5643.8763 534946.2959 12806.8944 -5643.8763
ENERGY: 180 303.4892 659.6827 2917.2967 0.0000 -177408.7540 14815.0182 395.3835 0.0000 0.0000 -158317.8837 0.0000 -158317.8837 -158317.8837 0.0000 12699.3141 -5900.9827 534946.2959 12699.3141 -5900.9827
ENERGY: 200 109.2081 628.4691 2923.3576 0.0000 -179543.7056 15071.1315 441.8776 0.0000 0.0000 -160369.6616 0.0000 -160369.6616 -160369.6616 0.0000 12659.9907 -6161.4860 534946.2959 12659.9907 -6161.4860
TCL: Setting parameter constraintScaling to 2.5
TCL: Minimizing for 100 steps
ETITLE: TS BOND ANGLE DIHED IMPRP ELECT VDW BOUNDARY MISC KINETIC TOTAL TEMP POTENTIAL TOTAL3 TEMPAVG PRESSURE GPRESSURE VOLUME PRESSAVG GPRESSAVG
ENERGY: 200 109.2081 628.4691 2923.3576 0.0000 -179543.7056 15071.1315 220.9388 0.0000 0.0000 -160590.6004 0.0000 -160590.6004 -160590.6004 0.0000 13208.4112 -25280.6157 534946.2959 13208.4112 -25280.6157
ENERGY: 220 275.0062 652.0423 2925.2507 0.0000 -180394.9172 15108.8047 287.9160 0.0000 0.0000 -161145.8973 0.0000 -161145.8973 -161145.8973 0.0000 13000.1124 -5920.6992 534946.2959 13000.1124 -5920.6992
ENERGY: 240 144.5357 629.0754 2922.0935 0.0000 -181649.9840 15308.6624 331.5469 0.0000 0.0000 -162314.0700 0.0000 -162314.0700 -162314.0700 0.0000 12968.5783 -6082.2898 534946.2959 12968.5783 -6082.2898
ENERGY: 260 238.4548 648.2674 2922.1878 0.0000 -183607.7447 15752.1978 410.0316 0.0000 0.0000 -163636.6053 0.0000 -163636.6053 -163636.6053 0.0000 12997.4123 -6272.0317 534946.2959 12997.4123 -6272.0317
ENERGY: 280 182.8198 654.5772 2917.9270 0.0000 -184830.1146 16103.6648 431.1050 0.0000 0.0000 -164540.0208 0.0000 -164540.0208 -164540.0208 0.0000 13136.3211 -6275.3836 534946.2959 13136.3211 -6275.3836
ENERGY: 300 181.0270 672.3977 2923.2609 0.0000 -185736.9042 16390.7996 428.0400 0.0000 0.0000 -165141.3790 0.0000 -165141.3790 -165141.3790 0.0000 13253.8889 -6246.1779 534946.2959 13253.8889 -6246.1779
TCL: Setting parameter constraintScaling to 1.25
TCL: Minimizing for 100 steps
ETITLE: TS BOND ANGLE DIHED IMPRP ELECT VDW BOUNDARY MISC KINETIC TOTAL TEMP POTENTIAL TOTAL3 TEMPAVG PRESSURE GPRESSURE VOLUME PRESSAVG GPRESSAVG
ENERGY: 300 181.0270 672.3977 2923.2609 0.0000 -185736.9042 16390.7996 214.0200 0.0000 0.0000 -165355.3990 0.0000 -165355.3990 -165355.3990 0.0000 13669.5667 -26250.2679 534946.2959 13669.5667 -26250.2679
ENERGY: 320 165.0654 664.5533 2915.3148 0.0000 -186220.7328 16487.1877 249.7654 0.0000 0.0000 -165738.8462 0.0000 -165738.8462 -165738.8462 0.0000 13644.1738 -5919.5201 534946.2959 13644.1738 -5919.5201
ENERGY: 340 157.3607 673.1317 2910.8666 0.0000 -187692.6531 16891.9899 346.9475 0.0000 0.0000 -166712.3566 0.0000 -166712.3566 -166712.3566 0.0000 13605.2253 -6108.0386 534946.2959 13605.2253 -6108.0386
ENERGY: 360 147.7977 663.4944 2904.7627 0.0000 -188269.6022 17085.7223 351.3117 0.0000 0.0000 -167116.5135 0.0000 -167116.5135 -167116.5135 0.0000 13740.9136 -6060.0693 534946.2959 13740.9136 -6060.0693
ENERGY: 380 176.5459 660.6980 2910.4767 0.0000 -188907.0570 17343.7234 330.1167 0.0000 0.0000 -167485.4964 0.0000 -167485.4964 -167485.4964 0.0000 13888.8698 -5963.4834 534946.2959 13888.8698 -5963.4834
ENERGY: 400 142.7809 658.3042 2926.0510 0.0000 -190417.2973 17959.5433 329.1780 0.0000 0.0000 -168401.4400 0.0000 -168401.4400 -168401.4400 0.0000 14263.3332 -5787.0554 534946.2959 14263.3332 -5787.0554
TCL: Setting parameter constraintScaling to 0.625
TCL: Minimizing for 100 steps
ETITLE: TS BOND ANGLE DIHED IMPRP ELECT VDW BOUNDARY MISC KINETIC TOTAL TEMP POTENTIAL TOTAL3 TEMPAVG PRESSURE GPRESSURE VOLUME PRESSAVG GPRESSAVG
ENERGY: 400 142.7809 658.3042 2926.0510 0.0000 -190417.2973 17959.5433 164.5890 0.0000 0.0000 -168566.0290 0.0000 -168566.0290 -168566.0290 0.0000 14543.8886 -26494.0841 534946.2959 14543.8886 -26494.0841
ENERGY: 420 227.9843 709.7004 2899.5441 0.0000 -191034.0836 18073.4010 217.3822 0.0000 0.0000 -168906.0716 0.0000 -168906.0716 -168906.0716 0.0000 14420.3687 -5715.2802 534946.2959 14420.3687 -5715.2802
ENERGY: 440 158.0229 664.9434 2898.5296 0.0000 -191708.9892 18286.8786 253.8307 0.0000 0.0000 -169446.7839 0.0000 -169446.7839 -169446.7839 0.0000 14388.6008 -5775.1498 534946.2959 14388.6008 -5775.1498
ENERGY: 460 153.8021 669.5382 2891.4671 0.0000 -192226.6265 18459.2575 270.0912 0.0000 0.0000 -169782.4704 0.0000 -169782.4704 -169782.4704 0.0000 14501.3066 -5744.8800 534946.2959 14501.3066 -5744.8800
ENERGY: 480 211.8419 725.8571 2927.5583 0.0000 -193632.4859 19114.9482 259.1982 0.0000 0.0000 -170393.0822 0.0000 -170393.0822 -170393.0822 0.0000 14911.7117 -5498.0127 534946.2959 14911.7117 -5498.0127
ENERGY: 500 180.5968 716.9776 2938.8774 0.0000 -194948.5389 19753.2016 277.6538 0.0000 0.0000 -171081.2317 0.0000 -171081.2317 -171081.2317 0.0000 15283.8023 -5254.3398 534946.2959 15283.8023 -5254.3398
TCL: Setting parameter constraintScaling to 0.3125
TCL: Minimizing for 100 steps
ETITLE: TS BOND ANGLE DIHED IMPRP ELECT VDW BOUNDARY MISC KINETIC TOTAL TEMP POTENTIAL TOTAL3 TEMPAVG PRESSURE GPRESSURE VOLUME PRESSAVG GPRESSAVG
ENERGY: 500 180.5968 716.9776 2938.8774 0.0000 -194948.5389 19753.2016 138.8269 0.0000 0.0000 -171220.0586 0.0000 -171220.0586 -171220.0586 0.0000 15476.9579 -26627.8643 534946.2959 15476.9579 -26627.8643
ENERGY: 520 159.4934 644.9741 2880.4805 0.0000 -195283.6311 19717.6522 167.6706 0.0000 0.0000 -171713.3604 0.0000 -171713.3604 -171713.3604 0.0000 15264.6584 -5310.1796 534946.2959 15264.6584 -5310.1796
ENERGY: 540 168.6786 672.9403 2877.6754 0.0000 -195771.8938 19851.5801 194.4798 0.0000 0.0000 -172006.5396 0.0000 -172006.5396 -172006.5396 0.0000 15198.7372 -5425.9970 534946.2959 15198.7372 -5425.9970
ENERGY: 560 409.6994 781.7632 2886.2490 0.0000 -196233.4396 19988.6367 205.1575 0.0000 0.0000 -171961.9337 0.0000 -171961.9337 -171961.9337 0.0000 15354.6761 -5373.3380 534946.2959 15354.6761 -5373.3380
ENERGY: 580 164.1912 672.4788 2875.3544 0.0000 -196404.3568 20073.1879 201.7118 0.0000 0.0000 -172417.4326 0.0000 -172417.4326 -172417.4326 0.0000 15366.3516 -5333.1027 534946.2959 15366.3516 -5333.1027
ENERGY: 600 151.4500 674.4556 2901.4731 0.0000 -197128.0333 20439.2364 196.7740 0.0000 0.0000 -172764.6441 0.0000 -172764.6441 -172764.6441 0.0000 15663.2010 -5129.8254 534946.2959 15663.2010 -5129.8254
TCL: Setting parameter constraintScaling to 0.15625
TCL: Minimizing for 100 steps
ETITLE: TS BOND ANGLE DIHED IMPRP ELECT VDW BOUNDARY MISC KINETIC TOTAL TEMP POTENTIAL TOTAL3 TEMPAVG PRESSURE GPRESSURE VOLUME PRESSAVG GPRESSAVG
ENERGY: 600 151.4500 674.4556 2901.4731 0.0000 -197128.0333 20439.2364 98.3870 0.0000 0.0000 -172863.0311 0.0000 -172863.0311 -172863.0311 0.0000 15779.4389 -26831.4675 534946.2959 15779.4389 -26831.4675
ENERGY: 620 216.4723 697.1588 2871.8486 0.0000 -197640.2762 20514.2522 120.8705 0.0000 0.0000 -173219.6737 0.0000 -173219.6737 -173219.6737 0.0000 15601.9011 -5251.7307 534946.2959 15601.9011 -5251.7307
ENERGY: 640 207.2826 688.3436 2866.2356 0.0000 -197971.3183 20629.1315 126.8077 0.0000 0.0000 -173453.5173 0.0000 -173453.5173 -173453.5173 0.0000 15669.3773 -5228.4689 534946.2959 15669.3773 -5228.4689
ENERGY: 660 402.6975 809.1357 2888.3854 0.0000 -198397.5082 20839.7311 124.6827 0.0000 0.0000 -173332.8758 0.0000 -173332.8758 -173332.8758 0.0000 15687.2766 -5215.5445 534946.2959 15687.2766 -5215.5445
ENERGY: 680 158.3954 697.3676 2886.8858 0.0000 -198894.2289 21070.0584 126.0920 0.0000 0.0000 -173955.4296 0.0000 -173955.4296 -173955.4296 0.0000 16027.5167 -4962.8136 534946.2959 16027.5167 -4962.8136
ENERGY: 700 165.8936 660.2094 2872.3705 0.0000 -199223.2890 21158.0614 132.9680 0.0000 0.0000 -174233.7863 0.0000 -174233.7863 -174233.7863 0.0000 16039.9993 -4998.3261 534946.2959 16039.9993 -4998.3261
TCL: Setting parameter constraintScaling to 0.078125
TCL: Minimizing for 100 steps
ETITLE: TS BOND ANGLE DIHED IMPRP ELECT VDW BOUNDARY MISC KINETIC TOTAL TEMP POTENTIAL TOTAL3 TEMPAVG PRESSURE GPRESSURE VOLUME PRESSAVG GPRESSAVG
ENERGY: 700 165.8936 660.2094 2872.3705 0.0000 -199223.2890 21158.0614 66.4840 0.0000 0.0000 -174300.2702 0.0000 -174300.2702 -174300.2702 0.0000 16109.1128 -26995.1203 534946.2959 16109.1128 -26995.1203
ENERGY: 720 301.5632 693.5649 2848.5050 0.0000 -199588.7763 21234.0022 74.6594 0.0000 0.0000 -174436.4817 0.0000 -174436.4817 -174436.4817 0.0000 15946.3286 -5131.6906 534946.2959 15946.3286 -5131.6906
ENERGY: 740 238.5256 673.9100 2848.8126 0.0000 -199994.9655 21373.1919 78.9877 0.0000 0.0000 -174781.5377 0.0000 -174781.5377 -174781.5377 0.0000 16070.1658 -5047.5413 534946.2959 16070.1658 -5047.5413
ENERGY: 760 165.8410 652.6902 2846.1950 0.0000 -200393.7635 21540.9725 79.0816 0.0000 0.0000 -175108.9832 0.0000 -175108.9832 -175108.9832 0.0000 16250.2946 -4923.3164 534946.2959 16250.2946 -4923.3164
ENERGY: 780 153.8232 656.1227 2849.2022 0.0000 -201094.4042 21821.9119 84.7198 0.0000 0.0000 -175528.6243 0.0000 -175528.6243 -175528.6243 0.0000 16389.4390 -4865.6488 534946.2959 16389.4390 -4865.6488
ENERGY: 800 186.9827 674.2165 2840.3079 0.0000 -201506.9448 21955.2061 93.0014 0.0000 0.0000 -175757.2304 0.0000 -175757.2304 -175757.2304 0.0000 16320.3851 -4968.2110 534946.2959 16320.3851 -4968.2110
TCL: Setting parameter constraintScaling to 0.0390625
TCL: Minimizing for 100 steps
ETITLE: TS BOND ANGLE DIHED IMPRP ELECT VDW BOUNDARY MISC KINETIC TOTAL TEMP POTENTIAL TOTAL3 TEMPAVG PRESSURE GPRESSURE VOLUME PRESSAVG GPRESSAVG
ENERGY: 800 186.9827 674.2165 2840.3079 0.0000 -201506.9448 21955.2061 46.5007 0.0000 0.0000 -175803.7310 0.0000 -175803.7310 -175803.7310 0.0000 16361.8530 -27288.8367 534946.2959 16361.8530 -27288.8367
ENERGY: 820 162.9692 675.5231 2836.1246 0.0000 -201585.6699 21974.4222 46.1924 0.0000 0.0000 -175890.4385 0.0000 -175890.4385 -175890.4385 0.0000 16459.9171 -4859.4329 534946.2959 16459.9171 -4859.4329
ENERGY: 840 178.4030 656.9268 2830.7922 0.0000 -201887.4993 22107.8086 47.0176 0.0000 0.0000 -176066.5511 0.0000 -176066.5511 -176066.5511 0.0000 16531.7745 -4814.5687 534946.2959 16531.7745 -4814.5687
ENERGY: 860 159.1857 645.3553 2827.9869 0.0000 -202413.7998 22318.3195 49.6934 0.0000 0.0000 -176413.2591 0.0000 -176413.2591 -176413.2591 0.0000 16627.5981 -4777.5885 534946.2959 16627.5981 -4777.5885
ENERGY: 880 493.4948 827.1993 2845.5524 0.0000 -203052.6218 22603.8127 54.4762 0.0000 0.0000 -176228.0864 0.0000 -176228.0864 -176228.0864 0.0000 16545.5464 -4905.8831 534946.2959 16545.5464 -4905.8831
ENERGY: 900 182.2772 702.9635 2831.4639 0.0000 -203229.1759 22644.8921 55.3660 0.0000 0.0000 -176812.2133 0.0000 -176812.2133 -176812.2133 0.0000 16738.3013 -4768.6850 534946.2959 16738.3013 -4768.6850
TCL: Setting parameter constraintScaling to 0.01953125
TCL: Minimizing for 100 steps
ETITLE: TS BOND ANGLE DIHED IMPRP ELECT VDW BOUNDARY MISC KINETIC TOTAL TEMP POTENTIAL TOTAL3 TEMPAVG PRESSURE GPRESSURE VOLUME PRESSAVG GPRESSAVG
ENERGY: 900 182.2772 702.9635 2831.4639 0.0000 -203229.1759 22644.8921 27.6830 0.0000 0.0000 -176839.8963 0.0000 -176839.8963 -176839.8963 0.0000 16761.5073 -27301.2340 534946.2959 16761.5073 -27301.2340
ENERGY: 920 170.4413 668.0499 2824.3756 0.0000 -203301.4157 22673.7687 27.5214 0.0000 0.0000 -176937.2589 0.0000 -176937.2589 -176937.2589 0.0000 16771.6694 -4737.4409 534946.2959 16771.6694 -4737.4409
ENERGY: 940 162.0076 660.5756 2828.0640 0.0000 -203586.3207 22827.2487 27.6146 0.0000 0.0000 -177080.8104 0.0000 -177080.8104 -177080.8104 0.0000 16914.5471 -4621.4669 534946.2959 16914.5471 -4621.4669
ENERGY: 960 170.4811 664.4365 2819.0267 0.0000 -203821.9155 22895.6750 28.8126 0.0000 0.0000 -177243.4835 0.0000 -177243.4835 -177243.4835 0.0000 16903.5828 -4663.1209 534946.2959 16903.5828 -4663.1209
ENERGY: 980 197.5362 688.7926 2822.9218 0.0000 -204219.0756 23061.7246 30.4436 0.0000 0.0000 -177417.6568 0.0000 -177417.6568 -177417.6568 0.0000 16966.9182 -4643.4499 534946.2959 16966.9182 -4643.4499
ENERGY: 1000 182.6729 669.1223 2812.9910 0.0000 -204812.5189 23334.3386 31.7053 0.0000 0.0000 -177781.6888 0.0000 -177781.6888 -177781.6888 0.0000 17142.0679 -4546.9348 534946.2959 17142.0679 -4546.9348
TCL: Setting parameter constraintScaling to 0
TCL: Minimizing for 5000 steps
ETITLE: TS BOND ANGLE DIHED IMPRP ELECT VDW BOUNDARY MISC KINETIC TOTAL TEMP POTENTIAL TOTAL3 TEMPAVG PRESSURE GPRESSURE VOLUME PRESSAVG GPRESSAVG
ENERGY: 1000 182.6729 669.1223 2812.9910 0.0000 -204812.5189 23334.3386 0.0000 0.0000 0.0000 -177813.3942 0.0000 -177813.3942 -177813.3942 0.0000 17167.6818 -27276.5314 534946.2959 17167.6818 -27276.5314
ENERGY: 2000 166.6320 667.5061 2804.4105 0.0000 -214556.0011 27806.8400 0.0000 0.0000 0.0000 -183110.6125 0.0000 -183110.6125 -183110.6125 0.0000 19571.5492 -3222.9856 534946.2959 19571.5492 -3222.9856
ENERGY: 3000 168.3219 668.4066 2796.4350 0.0000 -217571.1215 28926.5920 0.0000 0.0000 0.0000 -185011.3660 0.0000 -185011.3660 -185011.3660 0.0000 20133.3955 -2962.4681 534946.2959 20133.3955 -2962.4681
ENERGY: 4000 181.5935 669.2658 2791.2599 0.0000 -218839.8930 29439.4183 0.0000 0.0000 0.0000 -185758.3556 0.0000 -185758.3556 -185758.3556 0.0000 20405.2277 -2818.8849 534946.2959 20405.2277 -2818.8849
ENERGY: 5000 166.0377 665.3780 2789.2931 0.0000 -219388.8031 29618.5461 0.0000 0.0000 0.0000 -186149.5481 0.0000 -186149.5481 -186149.5481 0.0000 20494.3644 -2790.0881 534946.2959 20494.3644 -2790.0881
ENERGY: 6000 166.5634 667.1905 2785.5373 0.0000 -219815.8959 29777.1737 0.0000 0.0000 0.0000 -186419.4311 0.0000 -186419.4311 -186419.4311 0.0000 20579.4949 -2746.9122 534946.2959 20579.4949 -2746.9122
