Info: SIMULATION PARAMETERS:
Info: TIMESTEP               1
Info: NUMBER OF STEPS        0
Info: STEPS PER CYCLE        10
Info: PERIODIC CELL BASIS 1  72.449 0 0
Info: PERIODIC CELL BASIS 2  0 93.247 0
Info: PERIODIC CELL BASIS 3  0 0 79.185
Info: PERIODIC CELL CENTER   -0.248 -0.156 -0.047
Info: WRAPPING WATERS AROUND PERIODIC BOUNDARIES ON OUTPUT.
Info: WRAPPING ALL CLUSTERS AROUND PERIODIC BOUNDARIES ON OUTPUT.
Info: FIRST LDB TIMESTEP     50
Info: LAST LDB TIMESTEP     -1
Info: HOM BACKGROUND SCALING 1
Info: PME BACKGROUND SCALING 1
Info: MIN ATOMS PER PATCH    40
Info: VELOCITY FILE          ../replicas/rep93/equilibration/eq1.vel
Info: CENTER OF MASS MOVING INITIALLY? NO
Info: DIELECTRIC             1
Info: EXCLUDE                SCALED ONE-FOUR
Info: 1-4 ELECTROSTATICS SCALED BY 0.833333
Info: MODIFIED 1-4 VDW PARAMETERS WILL BE USED
Info: DCD FILENAME           ../replicas/rep93/equilibration/eq2.dcd
Info: DCD FREQUENCY          5000
Info: DCD FIRST STEP         5000
Info: DCD FILE WILL CONTAIN UNIT CELL DATA
Info: XST FILENAME           ../replicas/rep93/equilibration/eq2.xst
Info: XST FREQUENCY          5000
Info: NO VELOCITY DCD OUTPUT
Info: NO FORCE DCD OUTPUT
Info: OUTPUT FILENAME        ../replicas/rep93/equilibration/eq2
Info: RESTART FILENAME       ../replicas/rep93/equilibration/eq2.restart
Info: RESTART FREQUENCY      5000
Info: BINARY RESTART FILES WILL BE USED
Info: SWITCHING ACTIVE
Info: SWITCHING ON           10
Info: SWITCHING OFF          12
Info: PAIRLIST DISTANCE      13.5
Info: PAIRLIST SHRINK RATE   0.01
Info: PAIRLIST GROW RATE     0.01
Info: PAIRLIST TRIGGER       0.3
Info: PAIRLISTS PER CYCLE    2
Info: PAIRLISTS ENABLED
Info: MARGIN                 0.48
Info: HYDROGEN GROUP CUTOFF  2.5
Info: PATCH DIMENSION        16.48
Info: ENERGY OUTPUT STEPS    500
Info: CROSSTERM ENERGY INCLUDED IN DIHEDRAL
Info: TIMING OUTPUT STEPS    5000
Info: PRESSURE OUTPUT STEPS  500
Info: HARMONIC CONSTRAINTS ACTIVE
Info: HARMONIC CONS EXP      2
Info: HARMONIC CONS SCALING  10
Info: LANGEVIN DYNAMICS ACTIVE
Info: LANGEVIN TEMPERATURE   300
Info: LANGEVIN USING BBK INTEGRATOR
Info: LANGEVIN DAMPING COEFFICIENT IS 5 INVERSE PS
Info: LANGEVIN DYNAMICS NOT APPLIED TO HYDROGENS
Info: BERENDSEN PRESSURE COUPLING ACTIVE
Info:     TARGET PRESSURE IS 1 BAR
Info:     COMPRESSIBILITY ESTIMATE IS 4.57e-05 BAR^(-1)
Info:     RELAXATION TIME IS 100 FS
Info:     APPLIED EVERY 2 STEPS
Info:     PRESSURE CONTROL IS GROUP-BASED
Info:       CELL FLUCTUATION IS ISOTROPIC
Info: PARTICLE MESH EWALD (PME) ACTIVE
Info: PME TOLERANCE               1e-06
Info: PME EWALD COEFFICIENT       0.257952
Info: PME INTERPOLATION ORDER     4
Info: PME GRID DIMENSIONS         80 96 80
Info: PME MAXIMUM GRID SPACING    1
Info: FULL ELECTROSTATIC EVALUATION FREQUENCY      2
Info: USING VERLET I (r-RESPA) MTS SCHEME.
Info: C1 SPLITTING OF LONG RANGE ELECTROSTATICS
Info: PLACING ATOMS IN PATCHES BY HYDROGEN GROUPS
Info: RIGID BONDS TO HYDROGEN : WATER
Info:         ERROR TOLERANCE : 1e-05
Info:          MAX ITERATIONS : 100
Info: RIGID WATER USING SETTLE ALGORITHM
Info: RANDOM NUMBER SEED     1503706512
Info: USE HYDROGEN BONDS?    NO
Info: Using AMBER format force field!
Info: AMBER PARM FILE        ../build/complex.top
Info: COORDINATE PDB         ../replicas/rep93/equilibration/eq1.coor
Info: Exclusions in PARM file will be ignored!
Info: SCNB (VDW SCALING)     2
Info: USING ARITHMETIC MEAN TO COMBINE L-J SIGMA PARAMETERS
Info: SUMMARY OF PARAMETERS:
Info: 71 BONDS
Info: 145 ANGLES
Info: 76 DIHEDRAL
Info: 0 IMPROPER
Info: 0 CROSSTERM
Info: 0 VDW
Info: 190 VDW_PAIRS
Info: 0 NBTHOLE_PAIRS
Info: STRUCTURE SUMMARY:
Info: 49394 ATOMS
Info: 49448 BONDS
Info: 8698 ANGLES
Info: 18780 DIHEDRALS
Info: 0 IMPROPERS
Info: 0 CROSSTERMS
Info: 0 EXCLUSIONS
Info: 2336 CONSTRAINTS
Info: 44667 RIGID BONDS
Info: 103515 DEGREES OF FREEDOM
Info: 17225 HYDROGEN GROUPS
Info: 4 ATOMS IN LARGEST HYDROGEN GROUP
Info: 17225 MIGRATION GROUPS
Info: 4 ATOMS IN LARGEST MIGRATION GROUP
Info: TOTAL MASS = 301478 amu
Info: TOTAL CHARGE = 1.00115e-05 e
Info: MASS DENSITY = 0.935846 g/cm^3
Info: ATOM DENSITY = 0.0923345 atoms/A^3
Info: ADDED 70656 IMPLICIT EXCLUSIONS
Info: NONBONDED TABLE R-SQUARED SPACING: 0.0625
Info: NONBONDED TABLE SIZE: 769 POINTS
Info: REMOVING COM VELOCITY 0.00118239 -0.0257094 -0.0174741
TCL: Running for 5000 steps
ETITLE: TS BOND ANGLE DIHED IMPRP ELECT VDW BOUNDARY MISC KINETIC TOTAL TEMP POTENTIAL TOTAL3 TEMPAVG PRESSURE GPRESSURE VOLUME PRESSAVG GPRESSAVG
ENERGY: 0 396.5333 1232.0830 2912.1288 0.0000 -213078.8328 29786.7197 0.0000 0.0000 10030.4721 -168720.8960 97.5233 -178751.3681 -168711.2382 97.5233 -2264.9547 -2362.1353 534946.2959 -2264.9547 -2362.1353
ENERGY: 1000 1244.6071 1997.9112 3082.2678 0.0000 -193440.8704 26346.5126 760.0196 0.0000 24141.0416 -135868.5106 234.7162 -160009.5521 -135838.9291 217.6671 23.8027 8.1795 523046.5289 -14.2858 -14.2092
ENERGY: 2000 1463.2221 2147.9118 3112.7952 0.0000 -184360.1988 23382.9881 767.8728 0.0000 27879.0785 -125606.3303 271.0600 -153485.4089 -125561.5924 263.8379 20.6738 -52.3801 515233.5353 -23.3214 -24.0723
ENERGY: 3000 1577.3878 2203.2845 3098.9035 0.0000 -179721.1656 21839.4995 804.9242 0.0000 29558.6448 -120638.5213 287.3900 -150197.1662 -120597.3721 284.5006 -127.0028 -1.4695 510660.5163 -20.5214 -20.6389
ENERGY: 4000 1570.3334 2244.8982 3123.6960 0.0000 -176748.9015 20605.2815 792.3341 0.0000 30092.5516 -118319.8066 292.5810 -148412.3583 -118283.5302 293.4551 -39.8514 -32.6423 506730.9495 -13.2809 -13.4445
ENERGY: 5000 1596.1346 2260.3791 3117.1736 0.0000 -175627.6373 20462.6239 798.4890 0.0000 30714.8068 -116678.0304 298.6310 -147392.8372 -116627.1630 298.3682 -120.3654 -25.5022 506969.8709 2.7434 2.3109
TCL: Setting parameter constraintScaling to 5.0
TCL: Running for 5000 steps
ETITLE: TS BOND ANGLE DIHED IMPRP ELECT VDW BOUNDARY MISC KINETIC TOTAL TEMP POTENTIAL TOTAL3 TEMPAVG PRESSURE GPRESSURE VOLUME PRESSAVG GPRESSAVG
ENERGY: 5000 1596.1346 2260.3791 3117.1736 0.0000 -175627.6373 20462.6239 399.2445 0.0000 30712.7724 -117079.3093 298.6112 -147792.0817 -117035.8848 298.6112 -156.9790 -64.3656 506969.8709 -156.9790 -64.3656
ENERGY: 6000 1573.8246 2312.9923 3165.2442 0.0000 -175556.1576 20408.9080 632.0426 0.0000 30751.7737 -116711.3720 298.9904 -147463.1458 -116675.8464 299.1860 66.1332 24.9379 505628.3563 3.1915 3.4781
ENERGY: 7000 1590.5148 2301.8105 3163.2966 0.0000 -175437.4114 20135.0682 658.5144 0.0000 30731.7016 -116856.5054 298.7953 -147588.2070 -116805.5364 298.3766 -17.3838 4.9012 505442.2374 14.1197 13.9507
ENERGY: 8000 1623.3083 2345.4661 3137.8797 0.0000 -175696.9713 20264.4514 655.2883 0.0000 30624.5456 -117046.0321 297.7534 -147670.5776 -117005.5033 298.8844 -99.6598 4.9775 503375.9848 -4.7812 -4.7684
ENERGY: 9000 1539.3005 2314.6538 3171.8092 0.0000 -175102.6447 19881.2117 644.0071 0.0000 30940.6193 -116611.0430 300.8265 -147551.6623 -116564.5849 299.8912 -28.8013 -5.4791 502530.7567 1.5801 1.2994
ENERGY: 10000 1634.7057 2297.9858 3151.2369 0.0000 -175906.2145 20276.5828 659.6906 0.0000 30836.2044 -117049.8083 299.8113 -147886.0127 -116995.9269 299.5117 -94.0954 -9.0764 502149.7811 -1.3442 -1.6476
TCL: Setting parameter constraintScaling to 2.5
TCL: Running for 5000 steps
ETITLE: TS BOND ANGLE DIHED IMPRP ELECT VDW BOUNDARY MISC KINETIC TOTAL TEMP POTENTIAL TOTAL3 TEMPAVG PRESSURE GPRESSURE VOLUME PRESSAVG GPRESSAVG
ENERGY: 10000 1634.7057 2297.9858 3151.2369 0.0000 -175906.2145 20276.5828 329.8453 0.0000 30834.1552 -117381.7028 299.7914 -148215.8580 -117339.0467 299.7914 -120.5045 -51.1021 502149.7811 -120.5045 -51.1021
ENERGY: 11000 1588.6331 2319.7156 3167.5707 0.0000 -175958.0037 20365.3322 501.4145 0.0000 30836.5605 -117178.7770 299.8148 -148015.3375 -117128.3147 299.4963 -93.3112 -26.9893 502629.4187 13.7319 14.0098
ENERGY: 12000 1607.3746 2292.0836 3182.1955 0.0000 -175825.1036 20142.0772 495.9840 0.0000 31076.5587 -117028.8300 302.1482 -148105.3887 -116977.3945 298.7079 -75.9343 -22.0905 501811.4646 -0.0832 -0.0559
ENERGY: 13000 1605.2749 2337.0593 3180.8495 0.0000 -175764.5037 20408.1318 513.1444 0.0000 30979.6961 -116740.3477 301.2064 -147720.0438 -116697.5859 299.5101 19.3904 65.0438 500948.2467 4.1277 3.8467
ENERGY: 14000 1587.2848 2400.4575 3178.4247 0.0000 -175368.6946 19844.8008 517.4571 0.0000 31134.2626 -116706.0070 302.7092 -147840.2696 -116660.5361 300.2218 25.9960 22.4520 500558.2422 -6.4010 -6.0676
ENERGY: 15000 1628.6636 2354.9535 3184.3812 0.0000 -176049.4391 20416.2317 556.0763 0.0000 30944.5827 -116964.5500 300.8650 -147909.1327 -116920.0150 299.6033 -104.0061 -47.9763 500602.4449 10.3166 10.2215
TCL: Setting parameter constraintScaling to 1.25
TCL: Running for 5000 steps
ETITLE: TS BOND ANGLE DIHED IMPRP ELECT VDW BOUNDARY MISC KINETIC TOTAL TEMP POTENTIAL TOTAL3 TEMPAVG PRESSURE GPRESSURE VOLUME PRESSAVG GPRESSAVG
ENERGY: 15000 1628.6636 2354.9535 3184.3812 0.0000 -176049.4391 20416.2317 278.0381 0.0000 30942.5467 -117244.6241 300.8452 -148187.1708 -117199.4612 300.8452 -98.2994 -33.9938 500602.4449 -98.2994 -33.9938
ENERGY: 16000 1660.4931 2351.6157 3152.5931 0.0000 -175877.9479 20024.7812 402.6575 0.0000 31059.4764 -117226.3308 301.9821 -148285.8072 -117178.6541 300.6775 -61.7653 -17.9616 499382.6745 -5.4761 -5.9438
ENERGY: 17000 1658.4884 2325.4086 3168.1721 0.0000 -175765.7908 19959.7870 401.0736 0.0000 31060.3450 -117192.5161 301.9906 -148252.8611 -117140.6821 300.4254 -53.1135 -53.3411 498667.6602 1.8297 1.5953
ENERGY: 18000 1645.0186 2344.0523 3186.1270 0.0000 -175811.1616 20085.7332 408.5052 0.0000 30490.9303 -117650.7950 296.4543 -148141.7253 -117605.7378 298.4128 -10.5719 -8.7769 498452.0767 1.3799 1.0988
ENERGY: 19000 1676.5945 2339.3256 3186.4889 0.0000 -175856.2474 20285.0520 410.7050 0.0000 30937.5632 -117020.5183 300.7968 -147958.0815 -116976.4896 300.0217 -86.9183 -20.1775 499085.5809 4.2306 4.2265
ENERGY: 20000 1672.0798 2324.7504 3145.0265 0.0000 -175820.1301 20219.2967 408.2462 0.0000 30527.3915 -117523.3390 296.8088 -148050.7305 -117483.5040 298.5937 -128.9849 -20.1364 499182.2984 -3.8155 -4.2346
TCL: Setting parameter constraintScaling to 0.625
TCL: Running for 5000 steps
ETITLE: TS BOND ANGLE DIHED IMPRP ELECT VDW BOUNDARY MISC KINETIC TOTAL TEMP POTENTIAL TOTAL3 TEMPAVG PRESSURE GPRESSURE VOLUME PRESSAVG GPRESSAVG
ENERGY: 20000 1672.0798 2324.7504 3145.0265 0.0000 -175820.1301 20219.2967 204.1231 0.0000 30525.3247 -117729.5289 296.7887 -148254.8536 -117684.2202 296.7887 -136.9170 -30.7284 499182.2984 -136.9170 -30.7284
ENERGY: 21000 1606.0388 2390.6468 3189.3855 0.0000 -175468.0330 19949.5413 317.0403 0.0000 30869.9721 -117145.4081 300.1396 -148015.3802 -117098.4296 299.5102 -165.0297 -42.8612 499956.4758 10.9636 11.0754
ENERGY: 22000 1602.2817 2363.7306 3197.6225 0.0000 -176401.4456 20385.1222 307.7425 0.0000 30835.3518 -117709.5943 299.8030 -148544.9461 -117657.3466 299.6167 -63.8409 -69.3915 499910.5217 2.3588 2.5411
ENERGY: 23000 1668.3607 2354.5256 3186.2615 0.0000 -176063.5467 20136.3223 314.1004 0.0000 30845.8287 -117558.1474 299.9049 -148403.9761 -117515.7185 298.9827 -86.6108 -66.5118 499846.0351 13.7706 13.3669
ENERGY: 24000 1598.7807 2440.1880 3201.6528 0.0000 -175862.0432 20149.7365 308.9839 0.0000 30618.8187 -117543.8827 297.6977 -148162.7014 -117497.6374 298.7431 -22.7584 -66.9329 499137.5854 -3.0208 -2.9748
ENERGY: 25000 1674.6816 2361.6829 3200.2050 0.0000 -176196.0367 20225.0647 316.6944 0.0000 30565.0465 -117852.6616 297.1749 -148417.7081 -117813.4532 297.9897 83.7815 84.0563 498012.0216 -3.4929 -2.8250
TCL: Setting parameter constraintScaling to 0.3125
TCL: Running for 5000 steps
ETITLE: TS BOND ANGLE DIHED IMPRP ELECT VDW BOUNDARY MISC KINETIC TOTAL TEMP POTENTIAL TOTAL3 TEMPAVG PRESSURE GPRESSURE VOLUME PRESSAVG GPRESSAVG
ENERGY: 25000 1674.6816 2361.6829 3200.2050 0.0000 -176196.0367 20225.0647 158.3472 0.0000 30562.9862 -118013.0691 297.1549 -148576.0553 -117971.4191 297.1549 58.6648 56.1480 498012.0216 58.6648 56.1480
ENERGY: 26000 1652.6810 2400.5581 3214.9554 0.0000 -175700.3624 20157.7392 242.0039 0.0000 30899.6305 -117132.7944 300.4280 -148032.4249 -117092.4282 299.1234 -39.3661 -27.2440 499019.2029 1.9936 2.1373
ENERGY: 27000 1626.1020 2403.0859 3210.5842 0.0000 -175802.5981 20032.7019 230.0959 0.0000 30696.4557 -117603.5725 298.4526 -148300.0282 -117565.8218 298.9812 -49.6612 2.2852 498658.9957 -13.0523 -13.1674
ENERGY: 28000 1617.7827 2394.1378 3194.4506 0.0000 -176019.8653 20202.8566 267.2266 0.0000 30880.1428 -117463.2681 300.2385 -148343.4109 -117419.2711 299.2302 -96.6756 -15.4945 499406.1706 1.8907 2.1141
ENERGY: 29000 1632.2625 2430.4356 3225.7144 0.0000 -175784.6533 20063.4907 251.2096 0.0000 30873.2132 -117308.3274 300.1711 -148181.5405 -117260.6702 300.1179 127.0449 65.2826 497803.4396 -3.6546 -3.4233
ENERGY: 30000 1613.9699 2464.1457 3203.8609 0.0000 -175973.6172 20207.5582 249.1978 0.0000 30683.5064 -117551.3782 298.3267 -148234.8846 -117515.6211 299.6655 21.2106 81.1472 498937.5237 5.6737 6.5853
TCL: Setting parameter constraintScaling to 0.15625
TCL: Running for 5000 steps
ETITLE: TS BOND ANGLE DIHED IMPRP ELECT VDW BOUNDARY MISC KINETIC TOTAL TEMP POTENTIAL TOTAL3 TEMPAVG PRESSURE GPRESSURE VOLUME PRESSAVG GPRESSAVG
ENERGY: 30000 1613.9699 2464.1457 3203.8609 0.0000 -175973.6172 20207.5582 124.5989 0.0000 30681.4614 -117678.0221 298.3068 -148359.4835 -117632.5578 298.3068 -23.3083 39.2348 498937.5237 -23.3083 39.2348
ENERGY: 31000 1595.2283 2418.4097 3180.4281 0.0000 -175718.6376 20161.2933 193.0097 0.0000 30689.5919 -117480.6769 298.3858 -148170.2687 -117431.7815 298.8952 -32.8423 61.8874 499801.7448 13.2240 13.5662
ENERGY: 32000 1646.7848 2417.4254 3188.9488 0.0000 -176124.5511 20137.0700 204.5854 0.0000 30950.3770 -117579.3596 300.9214 -148529.7366 -117524.8626 299.2312 -41.6276 39.5374 498537.6462 -5.1063 -4.8144
ENERGY: 33000 1653.8792 2404.7817 3214.1078 0.0000 -175769.3806 20181.9314 206.6304 0.0000 30814.9302 -117293.1199 299.6045 -148108.0500 -117244.1396 299.7520 5.0927 30.3097 497593.4844 -8.7065 -8.6537
ENERGY: 34000 1623.8032 2481.8423 3234.1966 0.0000 -175346.4642 19823.2720 204.0185 0.0000 30848.1927 -117131.1388 299.9279 -147979.3315 -117081.0921 300.1207 -20.6411 -13.2740 498126.9452 1.9229 2.3080
ENERGY: 35000 1642.5409 2425.0188 3225.1468 0.0000 -175908.2615 20144.9562 209.8665 0.0000 30941.4664 -117319.2659 300.8347 -148260.7323 -117271.2644 300.2145 -111.5077 8.8989 498585.8353 7.8315 7.9949
TCL: Setting parameter constraintScaling to 0.078125
TCL: Running for 5000 steps
ETITLE: TS BOND ANGLE DIHED IMPRP ELECT VDW BOUNDARY MISC KINETIC TOTAL TEMP POTENTIAL TOTAL3 TEMPAVG PRESSURE GPRESSURE VOLUME PRESSAVG GPRESSAVG
ENERGY: 35000 1642.5409 2425.0188 3225.1468 0.0000 -175908.2615 20144.9562 104.9332 0.0000 30939.4504 -117426.2151 300.8151 -148365.6655 -117386.9584 300.8151 -133.1270 -9.8955 498585.8353 -133.1270 -9.8955
ENERGY: 36000 1607.4121 2438.8236 3243.4649 0.0000 -175755.6763 20190.9349 149.8488 0.0000 30829.1508 -117296.0410 299.7427 -148125.1918 -117255.9131 300.4507 -33.2380 17.6949 499141.6963 5.1859 5.2321
ENERGY: 37000 1678.9619 2454.2874 3198.7570 0.0000 -175559.3292 20076.1809 153.0498 0.0000 30702.0926 -117295.9996 298.5074 -147998.0922 -117257.7560 300.9482 -158.7949 -69.5173 498772.3765 -3.8294 -3.9117
ENERGY: 38000 1636.0939 2458.6620 3247.9539 0.0000 -175983.0630 20119.3421 150.1067 0.0000 31051.5369 -117319.3676 301.9049 -148370.9044 -117273.7494 300.1587 -84.3388 0.7556 497731.2534 -8.7345 -8.4854
ENERGY: 39000 1680.0198 2453.3802 3179.4179 0.0000 -176054.4425 20181.1331 154.5741 0.0000 30832.6065 -117573.3109 299.7763 -148405.9173 -117518.5495 299.7241 -100.5102 -110.0282 497183.5724 2.1856 2.1573
ENERGY: 40000 1649.3271 2409.5419 3189.4019 0.0000 -176046.0481 20118.7655 158.6976 0.0000 31088.1480 -117432.1661 302.2609 -148520.3141 -117391.0213 299.4634 100.6259 11.5539 495648.2364 -14.8501 -14.9967
TCL: Setting parameter constraintScaling to 0.0390625
TCL: Running for 5000 steps
ETITLE: TS BOND ANGLE DIHED IMPRP ELECT VDW BOUNDARY MISC KINETIC TOTAL TEMP POTENTIAL TOTAL3 TEMPAVG PRESSURE GPRESSURE VOLUME PRESSAVG GPRESSAVG
ENERGY: 40000 1649.3271 2409.5419 3189.4019 0.0000 -176046.0481 20118.7655 79.3488 0.0000 31086.1025 -117513.5604 302.2410 -148599.6629 -117466.8134 302.2410 71.4020 -14.2603 495648.2364 71.4020 -14.2603
ENERGY: 41000 1626.1295 2399.8505 3217.3707 0.0000 -175783.1254 19966.5116 109.6921 0.0000 30949.7262 -117513.8447 300.9150 -148463.5709 -117460.6127 299.9124 -111.7866 -152.9483 498221.0686 19.1983 19.3750
ENERGY: 42000 1695.1711 2423.6012 3214.4948 0.0000 -175894.1702 20187.7795 127.8463 0.0000 30801.8052 -117443.4720 299.4769 -148245.2772 -117401.6451 299.8456 34.8433 -11.0451 497838.7215 10.8092 10.0760
ENERGY: 43000 1673.3882 2434.2365 3196.0427 0.0000 -175788.9340 19915.9072 118.1567 0.0000 30976.5280 -117474.6748 301.1756 -148451.2028 -117424.4985 300.3324 -47.8324 39.7966 497628.6591 5.7870 5.2795
ENERGY: 44000 1686.3681 2426.8733 3190.1967 0.0000 -175832.5567 19936.9181 120.6318 0.0000 30842.8399 -117628.7288 299.8758 -148471.5687 -117592.6994 299.7682 -160.1193 -44.4531 497070.3829 -2.1397 -2.2762
ENERGY: 45000 1677.6800 2392.3687 3193.0871 0.0000 -175614.8297 20073.7814 122.4370 0.0000 30932.4985 -117222.9770 300.7475 -148155.4755 -117165.0754 299.9251 -28.9414 17.6342 498717.0865 5.3610 5.0018
TCL: Setting parameter constraintScaling to 0.01953125
TCL: Running for 5000 steps
ETITLE: TS BOND ANGLE DIHED IMPRP ELECT VDW BOUNDARY MISC KINETIC TOTAL TEMP POTENTIAL TOTAL3 TEMPAVG PRESSURE GPRESSURE VOLUME PRESSAVG GPRESSAVG
ENERGY: 45000 1677.6800 2392.3687 3193.0871 0.0000 -175614.8297 20073.7814 61.2185 0.0000 30930.4516 -117286.2424 300.7276 -148216.6940 -117247.6479 300.7276 -40.4088 0.1516 498717.0865 -40.4088 0.1516
ENERGY: 46000 1611.6661 2427.3840 3205.1044 0.0000 -176098.3029 20138.6454 77.1436 0.0000 30944.4299 -117693.9295 300.8636 -148638.3594 -117654.8428 299.3322 -13.2467 -21.6914 497436.2727 -4.6499 -5.3691
ENERGY: 47000 1619.5104 2420.1540 3214.6799 0.0000 -175485.1334 19903.3536 78.4891 0.0000 30713.6225 -117535.3238 298.6195 -148248.9463 -117487.9594 300.2309 -62.8697 -35.2735 496829.0941 -5.1718 -4.7682
ENERGY: 48000 1617.3235 2490.7138 3226.3782 0.0000 -175477.4009 19805.7127 87.5371 0.0000 30975.2750 -117274.4606 301.1635 -148249.7356 -117232.1805 300.3198 -146.7473 -124.4289 496325.9650 -2.9596 -3.3420
ENERGY: 49000 1651.7515 2378.0919 3213.5816 0.0000 -175851.4122 19997.4418 90.0949 0.0000 31004.2004 -117516.2500 301.4447 -148520.4504 -117473.5655 300.7704 -11.7970 40.0761 495148.6348 -7.1098 -7.1241
ENERGY: 50000 1639.6534 2428.5548 3214.6224 0.0000 -175846.2697 20127.7010 86.4176 0.0000 30854.4143 -117494.9063 299.9884 -148349.3205 -117463.5649 300.6586 -64.8264 15.0065 496723.8456 -1.5289 -1.3535
TCL: Setting parameter constraintScaling to 0
TCL: Running for 5000 steps
ETITLE: TS BOND ANGLE DIHED IMPRP ELECT VDW BOUNDARY MISC KINETIC TOTAL TEMP POTENTIAL TOTAL3 TEMPAVG PRESSURE GPRESSURE VOLUME PRESSAVG GPRESSAVG
ENERGY: 50000 1639.6534 2428.5548 3214.6224 0.0000 -175846.2697 20127.7010 0.0000 0.0000 30852.3748 -117583.3634 299.9685 -148435.7382 -117542.8952 299.9685 -76.6035 -1.0134 496723.8456 -76.6035 -1.0134
ENERGY: 51000 1643.7094 2445.4503 3182.2778 0.0000 -175872.9931 19987.8228 0.0000 0.0000 30867.5983 -117746.1344 300.1165 -148613.7328 -117694.0470 300.1619 69.8836 31.9458 495832.0554 -2.1668 -1.7599
ENERGY: 52000 1641.7843 2422.1603 3218.6380 0.0000 -175969.5840 19979.9624 0.0000 0.0000 30929.0611 -117777.9780 300.7141 -148707.0391 -117742.7275 299.9302 -44.6128 -5.8191 495908.9121 2.4112 2.0566
ENERGY: 53000 1674.7773 2382.2352 3233.6529 0.0000 -175825.4529 20059.2012 0.0000 0.0000 30852.4723 -117623.1141 299.9695 -148475.5864 -117582.4337 299.8437 -8.3949 11.2343 497421.5261 13.0322 13.7419
ENERGY: 54000 1659.1841 2377.9721 3194.2963 0.0000 -176092.3172 20028.5462 0.0000 0.0000 30846.2893 -117986.0294 299.9094 -148832.3186 -117938.0901 300.2668 -122.4122 -104.5334 496993.2971 12.6995 13.0270
ENERGY: 55000 1613.1787 2417.3891 3172.8154 0.0000 -176231.6656 20096.1003 0.0000 0.0000 30786.2083 -118145.9738 299.3252 -148932.1821 -118097.3958 299.3111 36.4255 -34.9077 494353.7395 -9.8901 -9.9479
