Info: SIMULATION PARAMETERS:
Info: TIMESTEP               2
Info: NUMBER OF STEPS        0
Info: STEPS PER CYCLE        10
Info: PERIODIC CELL BASIS 1  72.449 0 0
Info: PERIODIC CELL BASIS 2  0 93.247 0
Info: PERIODIC CELL BASIS 3  0 0 79.185
Info: PERIODIC CELL CENTER   -0.248 -0.156 -0.047
Info: WRAPPING WATERS AROUND PERIODIC BOUNDARIES ON OUTPUT.
Info: WRAPPING ALL CLUSTERS AROUND PERIODIC BOUNDARIES ON OUTPUT.
Info: FIRST LDB TIMESTEP     50
Info: LAST LDB TIMESTEP     -1
Info: HOM BACKGROUND SCALING 1
Info: PME BACKGROUND SCALING 1
Info: MIN ATOMS PER PATCH    40
Info: INITIAL TEMPERATURE    0
Info: CENTER OF MASS MOVING INITIALLY? NO
Info: DIELECTRIC             1
Info: EXCLUDE                SCALED ONE-FOUR
Info: 1-4 ELECTROSTATICS SCALED BY 0.833333
Info: MODIFIED 1-4 VDW PARAMETERS WILL BE USED
Info: NO DCD TRAJECTORY OUTPUT
Info: NO EXTENDED SYSTEM TRAJECTORY OUTPUT
Info: NO VELOCITY DCD OUTPUT
Info: NO FORCE DCD OUTPUT
Info: OUTPUT FILENAME        ../replicas/rep66/equilibration/eq0
Info: NO RESTART FILE
Info: SWITCHING ACTIVE
Info: SWITCHING ON           10
Info: SWITCHING OFF          12
Info: PAIRLIST DISTANCE      13.5
Info: PAIRLIST SHRINK RATE   0.01
Info: PAIRLIST GROW RATE     0.01
Info: PAIRLIST TRIGGER       0.3
Info: PAIRLISTS PER CYCLE    2
Info: PAIRLISTS ENABLED
Info: MARGIN                 0
Info: HYDROGEN GROUP CUTOFF  2.5
Info: PATCH DIMENSION        16
Info: ENERGY OUTPUT STEPS    500
Info: CROSSTERM ENERGY INCLUDED IN DIHEDRAL
Info: TIMING OUTPUT STEPS    5000
Info: PRESSURE OUTPUT STEPS  500
Info: HARMONIC CONSTRAINTS ACTIVE
Info: HARMONIC CONS EXP      2
Info: HARMONIC CONS SCALING  10
Info: CONJUGATE GRADIENT MINIMIZATION ACTIVE
Info: LINE MINIMIZATION GOAL = 0.001
Info: BABY STEP SIZE = 0.01
Info: TINY STEP SIZE = 1e-06
Info: PARTICLE MESH EWALD (PME) ACTIVE
Info: PME TOLERANCE               1e-06
Info: PME EWALD COEFFICIENT       0.257952
Info: PME INTERPOLATION ORDER     4
Info: PME GRID DIMENSIONS         80 96 80
Info: PME MAXIMUM GRID SPACING    1
Info: FULL ELECTROSTATIC EVALUATION FREQUENCY      2
Info: USING VERLET I (r-RESPA) MTS SCHEME.
Info: C1 SPLITTING OF LONG RANGE ELECTROSTATICS
Info: PLACING ATOMS IN PATCHES BY HYDROGEN GROUPS
Info: RIGID BONDS TO HYDROGEN : ALL
Info:         ERROR TOLERANCE : 1e-05
Info:          MAX ITERATIONS : 100
Info: RIGID WATER USING SETTLE ALGORITHM
Info: RANDOM NUMBER SEED     1503692284
Info: USE HYDROGEN BONDS?    NO
Info: Using AMBER format force field!
Info: AMBER PARM FILE        ../build/complex.top
Info: COORDINATE PDB         ../build/complex.pdb
Info: Exclusions in PARM file will be ignored!
Info: SCNB (VDW SCALING)     2
Info: USING ARITHMETIC MEAN TO COMBINE L-J SIGMA PARAMETERS
Info: SUMMARY OF PARAMETERS:
Info: 71 BONDS
Info: 145 ANGLES
Info: 76 DIHEDRAL
Info: 0 IMPROPER
Info: 0 CROSSTERM
Info: 0 VDW
Info: 190 VDW_PAIRS
Info: 0 NBTHOLE_PAIRS
Info: STRUCTURE SUMMARY:
Info: 49394 ATOMS
Info: 49448 BONDS
Info: 8698 ANGLES
Info: 18780 DIHEDRALS
Info: 0 IMPROPERS
Info: 0 CROSSTERMS
Info: 0 EXCLUSIONS
Info: 2336 CONSTRAINTS
Info: 47058 RIGID BONDS
Info: 101124 DEGREES OF FREEDOM
Info: 17225 HYDROGEN GROUPS
Info: 4 ATOMS IN LARGEST HYDROGEN GROUP
Info: 17225 MIGRATION GROUPS
Info: 4 ATOMS IN LARGEST MIGRATION GROUP
Info: TOTAL MASS = 301478 amu
Info: TOTAL CHARGE = 1.00115e-05 e
Info: MASS DENSITY = 0.935846 g/cm^3
Info: ATOM DENSITY = 0.0923345 atoms/A^3
Info: ADDED 70656 IMPLICIT EXCLUSIONS
Info: NONBONDED TABLE R-SQUARED SPACING: 0.0625
Info: NONBONDED TABLE SIZE: 769 POINTS
Info: REMOVING COM VELOCITY 0 0 0
TCL: Minimizing for 100 steps
ETITLE: TS BOND ANGLE DIHED IMPRP ELECT VDW BOUNDARY MISC KINETIC TOTAL TEMP POTENTIAL TOTAL3 TEMPAVG PRESSURE GPRESSURE VOLUME PRESSAVG GPRESSAVG
ENERGY: 0 155.4176 1012.2698 2855.7272 0.0000 -154496.7912 207729.2052 0.0468 0.0000 0.0000 57255.8754 0.0000 57255.8754 57255.8754 0.0000 116350.2532 86546.1670 534946.2959 116350.2532 86546.1670
ENERGY: 20 304.7558 935.7912 2893.4663 0.0000 -158672.9411 17936.6591 143.9455 0.0000 0.0000 -136458.3232 0.0000 -136458.3232 -136458.3232 0.0000 16523.9384 -239.4562 534946.2959 16523.9384 -239.4562
ENERGY: 40 198.7462 799.5730 2896.9273 0.0000 -162811.4530 16417.9537 221.3030 0.0000 0.0000 -142276.9498 0.0000 -142276.9498 -142276.9498 0.0000 15011.2703 -2135.4698 534946.2959 15011.2703 -2135.4698
ENERGY: 60 130.5281 715.3440 2898.2166 0.0000 -167496.1583 15446.7537 315.2797 0.0000 0.0000 -147990.0363 0.0000 -147990.0363 -147990.0363 0.0000 13793.8834 -3799.3991 534946.2959 13793.8834 -3799.3991
ENERGY: 80 431.2727 765.6305 2904.3788 0.0000 -169937.5404 15121.1511 372.0125 0.0000 0.0000 -150343.0949 0.0000 -150343.0949 -150343.0949 0.0000 13270.3279 -4577.2487 534946.2959 13270.3279 -4577.2487
ENERGY: 100 119.3834 710.0598 2905.2591 0.0000 -171259.7090 14991.7874 387.3613 0.0000 0.0000 -152145.8580 0.0000 -152145.8580 -152145.8580 0.0000 13056.2659 -4908.1713 534946.2959 13056.2659 -4908.1713
TCL: Setting parameter constraintScaling to 5.0
TCL: Minimizing for 100 steps
ETITLE: TS BOND ANGLE DIHED IMPRP ELECT VDW BOUNDARY MISC KINETIC TOTAL TEMP POTENTIAL TOTAL3 TEMPAVG PRESSURE GPRESSURE VOLUME PRESSAVG GPRESSAVG
ENERGY: 100 119.3834 710.0598 2905.2591 0.0000 -171259.7090 14991.7874 193.6806 0.0000 0.0000 -152339.5387 0.0000 -152339.5387 -152339.5387 0.0000 13672.7719 -23021.8172 534946.2959 13672.7719 -23021.8172
ENERGY: 120 108.8793 687.5825 2912.9264 0.0000 -172865.8837 14798.2708 281.1914 0.0000 0.0000 -154077.0333 0.0000 -154077.0333 -154077.0333 0.0000 13218.2556 -4906.0161 534946.2959 13218.2556 -4906.0161
ENERGY: 140 309.3721 708.8564 2913.8024 0.0000 -174236.8015 14731.4746 326.6433 0.0000 0.0000 -155246.6526 0.0000 -155246.6526 -155246.6526 0.0000 12971.5149 -5303.2714 534946.2959 12971.5149 -5303.2714
ENERGY: 160 265.5322 683.2016 2923.1912 0.0000 -176276.9899 14757.4335 382.9513 0.0000 0.0000 -157264.6800 0.0000 -157264.6800 -157264.6800 0.0000 12740.7491 -5743.2182 534946.2959 12740.7491 -5743.2182
ENERGY: 180 268.7027 744.1026 2928.5665 0.0000 -178996.6635 15023.7247 473.3679 0.0000 0.0000 -159558.1990 0.0000 -159558.1990 -159558.1990 0.0000 12521.5366 -6223.9752 534946.2959 12521.5366 -6223.9752
ENERGY: 200 239.0969 694.0675 2941.3755 0.0000 -181557.2276 15587.2766 546.2844 0.0000 0.0000 -161549.1268 0.0000 -161549.1268 -161549.1268 0.0000 12582.6639 -6431.4620 534946.2959 12582.6639 -6431.4620
TCL: Setting parameter constraintScaling to 2.5
TCL: Minimizing for 100 steps
ETITLE: TS BOND ANGLE DIHED IMPRP ELECT VDW BOUNDARY MISC KINETIC TOTAL TEMP POTENTIAL TOTAL3 TEMPAVG PRESSURE GPRESSURE VOLUME PRESSAVG GPRESSAVG
ENERGY: 200 239.0969 694.0675 2941.3755 0.0000 -181557.2277 15587.2766 273.1422 0.0000 0.0000 -161822.2690 0.0000 -161822.2690 -161822.2690 0.0000 13229.5944 -25662.3474 534946.2959 13229.5944 -25662.3474
ENERGY: 220 251.1257 679.7981 2933.0254 0.0000 -182083.0785 15471.2594 338.4809 0.0000 0.0000 -162409.3890 0.0000 -162409.3890 -162409.3890 0.0000 12968.3888 -6101.1634 534946.2959 12968.3888 -6101.1634
ENERGY: 240 139.3649 665.7776 2928.6118 0.0000 -182462.6770 15494.4753 343.5349 0.0000 0.0000 -162890.9126 0.0000 -162890.9126 -162890.9126 0.0000 13034.4894 -6114.2904 534946.2959 13034.4894 -6114.2904
ENERGY: 260 164.1205 683.7941 2921.5810 0.0000 -183941.0180 15799.9247 385.5783 0.0000 0.0000 -163986.0194 0.0000 -163986.0194 -163986.0194 0.0000 13031.6747 -6253.2900 534946.2959 13031.6747 -6253.2900
ENERGY: 280 168.9120 700.7942 2917.5845 0.0000 -185420.5888 16227.6667 454.9276 0.0000 0.0000 -164950.7039 0.0000 -164950.7039 -164950.7039 0.0000 13142.6946 -6345.6677 534946.2959 13142.6946 -6345.6677
ENERGY: 300 126.6842 639.5119 2916.2443 0.0000 -186092.3754 16444.6831 481.3839 0.0000 0.0000 -165483.8680 0.0000 -165483.8680 -165483.8680 0.0000 13207.1610 -6349.6368 534946.2959 13207.1610 -6349.6368
TCL: Setting parameter constraintScaling to 1.25
TCL: Minimizing for 100 steps
ETITLE: TS BOND ANGLE DIHED IMPRP ELECT VDW BOUNDARY MISC KINETIC TOTAL TEMP POTENTIAL TOTAL3 TEMPAVG PRESSURE GPRESSURE VOLUME PRESSAVG GPRESSAVG
ENERGY: 300 126.6842 639.5119 2916.2443 0.0000 -186092.3754 16444.6831 240.6920 0.0000 0.0000 -165724.5599 0.0000 -165724.5599 -165724.5599 0.0000 13655.5003 -26359.3704 534946.2959 13655.5003 -26359.3704
ENERGY: 320 132.7543 635.6128 2911.2554 0.0000 -186798.2500 16615.3133 283.5232 0.0000 0.0000 -166219.7910 0.0000 -166219.7910 -166219.7910 0.0000 13609.7803 -6009.5795 534946.2959 13609.7803 -6009.5795
ENERGY: 340 247.1569 647.1984 2912.3875 0.0000 -187607.0745 16888.8761 305.5444 0.0000 0.0000 -166605.9112 0.0000 -166605.9112 -166605.9112 0.0000 13614.1796 -6059.1085 534946.2959 13614.1796 -6059.1085
ENERGY: 360 162.9521 664.2569 2905.9264 0.0000 -189116.8878 17420.9536 356.1650 0.0000 0.0000 -167606.6338 0.0000 -167606.6338 -167606.6338 0.0000 13935.2195 -5974.3867 534946.2959 13935.2195 -5974.3867
ENERGY: 380 229.1870 640.0514 2899.9096 0.0000 -190450.9288 17946.0654 401.4769 0.0000 0.0000 -168334.2386 0.0000 -168334.2386 -168334.2386 0.0000 14048.5718 -5976.8255 534946.2959 14048.5718 -5976.8255
ENERGY: 400 149.8374 661.0700 2902.9816 0.0000 -190676.5904 17997.7907 400.4077 0.0000 0.0000 -168564.5029 0.0000 -168564.5029 -168564.5029 0.0000 14156.3154 -5931.4128 534946.2959 14156.3154 -5931.4128
TCL: Setting parameter constraintScaling to 0.625
TCL: Minimizing for 100 steps
ETITLE: TS BOND ANGLE DIHED IMPRP ELECT VDW BOUNDARY MISC KINETIC TOTAL TEMP POTENTIAL TOTAL3 TEMPAVG PRESSURE GPRESSURE VOLUME PRESSAVG GPRESSAVG
ENERGY: 400 149.8374 661.0700 2902.9816 0.0000 -190676.5904 17997.7907 200.2039 0.0000 0.0000 -168764.7068 0.0000 -168764.7068 -168764.7068 0.0000 14456.9549 -26629.5808 534946.2959 14456.9549 -26629.5808
ENERGY: 420 357.1004 671.1524 2899.1764 0.0000 -191026.5662 18088.6200 218.0384 0.0000 0.0000 -168792.4788 0.0000 -168792.4788 -168792.4788 0.0000 14345.3801 -5746.2199 534946.2959 14345.3801 -5746.2199
ENERGY: 440 162.0082 640.9452 2891.4576 0.0000 -191560.5407 18241.2812 241.9544 0.0000 0.0000 -169382.8940 0.0000 -169382.8940 -169382.8940 0.0000 14400.2600 -5753.3064 534946.2959 14400.2600 -5753.3064
ENERGY: 460 161.9585 640.8317 2887.3780 0.0000 -191922.7914 18368.5691 249.5566 0.0000 0.0000 -169614.4976 0.0000 -169614.4976 -169614.4976 0.0000 14481.4323 -5724.8557 534946.2959 14481.4323 -5724.8557
ENERGY: 480 200.2410 644.6361 2889.9005 0.0000 -192716.7626 18662.4919 269.0598 0.0000 0.0000 -170050.4332 0.0000 -170050.4332 -170050.4332 0.0000 14598.8265 -5692.2399 534946.2959 14598.8265 -5692.2399
ENERGY: 500 181.6400 653.6059 2883.9688 0.0000 -193197.0424 18838.1011 285.2932 0.0000 0.0000 -170354.4335 0.0000 -170354.4335 -170354.4335 0.0000 14630.6331 -5699.0900 534946.2959 14630.6331 -5699.0900
TCL: Setting parameter constraintScaling to 0.3125
TCL: Minimizing for 100 steps
ETITLE: TS BOND ANGLE DIHED IMPRP ELECT VDW BOUNDARY MISC KINETIC TOTAL TEMP POTENTIAL TOTAL3 TEMPAVG PRESSURE GPRESSURE VOLUME PRESSAVG GPRESSAVG
ENERGY: 500 181.6400 653.6059 2883.9688 0.0000 -193197.0424 18838.1011 142.6466 0.0000 0.0000 -170497.0800 0.0000 -170497.0800 -170497.0800 0.0000 14817.4003 -26860.4452 534946.2959 14817.4003 -26860.4452
ENERGY: 520 152.7823 634.2614 2880.5394 0.0000 -193460.9993 18928.8188 148.2238 0.0000 0.0000 -170716.3736 0.0000 -170716.3736 -170716.3736 0.0000 14875.6222 -5496.0186 534946.2959 14875.6222 -5496.0186
ENERGY: 540 174.8158 679.0911 2881.5887 0.0000 -194409.9559 19265.4778 174.9572 0.0000 0.0000 -171234.0253 0.0000 -171234.0253 -171234.0253 0.0000 14989.3190 -5492.8768 534946.2959 14989.3190 -5492.8768
ENERGY: 560 331.2716 704.9203 2879.0446 0.0000 -194870.6971 19443.3652 183.7643 0.0000 0.0000 -171328.3312 0.0000 -171328.3312 -171328.3312 0.0000 15041.6872 -5497.4295 534946.2959 15041.6872 -5497.4295
ENERGY: 580 327.7059 672.2014 2873.3103 0.0000 -195439.9646 19664.9798 194.2696 0.0000 0.0000 -171707.4977 0.0000 -171707.4977 -171707.4977 0.0000 15152.9794 -5425.0644 534946.2959 15152.9794 -5425.0644
ENERGY: 600 160.5163 648.4127 2868.4277 0.0000 -195916.9585 19847.9669 203.7748 0.0000 0.0000 -172187.8602 0.0000 -172187.8602 -172187.8602 0.0000 15235.3925 -5405.3376 534946.2959 15235.3925 -5405.3376
TCL: Setting parameter constraintScaling to 0.15625
TCL: Minimizing for 100 steps
ETITLE: TS BOND ANGLE DIHED IMPRP ELECT VDW BOUNDARY MISC KINETIC TOTAL TEMP POTENTIAL TOTAL3 TEMPAVG PRESSURE GPRESSURE VOLUME PRESSAVG GPRESSAVG
ENERGY: 600 160.5163 648.4127 2868.4277 0.0000 -195916.9585 19847.9669 101.8874 0.0000 0.0000 -172289.7476 0.0000 -172289.7476 -172289.7476 0.0000 15351.8150 -26962.0268 534946.2959 15351.8150 -26962.0268
ENERGY: 620 160.2129 651.5850 2865.4529 0.0000 -196312.0645 19990.3478 108.3906 0.0000 0.0000 -172536.0753 0.0000 -172536.0753 -172536.0753 0.0000 15408.5047 -5275.3030 534946.2959 15408.5047 -5275.3030
ENERGY: 640 171.7283 650.9090 2863.3538 0.0000 -196838.1607 20180.9634 117.0260 0.0000 0.0000 -172854.1802 0.0000 -172854.1802 -172854.1802 0.0000 15459.4198 -5282.3028 534946.2959 15459.4198 -5282.3028
ENERGY: 660 200.7328 674.2125 2859.9705 0.0000 -197656.9468 20494.8303 127.0924 0.0000 0.0000 -173300.1082 0.0000 -173300.1082 -173300.1082 0.0000 15636.9706 -5209.3437 534946.2959 15636.9706 -5209.3437
ENERGY: 680 160.9882 652.5945 2857.9060 0.0000 -197769.0542 20537.2925 129.3455 0.0000 0.0000 -173430.9276 0.0000 -173430.9276 -173430.9276 0.0000 15639.2429 -5219.9638 534946.2959 15639.2429 -5219.9638
ENERGY: 700 165.7717 656.1182 2853.9876 0.0000 -198510.7200 20811.8758 138.2677 0.0000 0.0000 -173884.6990 0.0000 -173884.6990 -173884.6990 0.0000 15776.4086 -5173.6420 534946.2959 15776.4086 -5173.6420
TCL: Setting parameter constraintScaling to 0.078125
TCL: Minimizing for 100 steps
ETITLE: TS BOND ANGLE DIHED IMPRP ELECT VDW BOUNDARY MISC KINETIC TOTAL TEMP POTENTIAL TOTAL3 TEMPAVG PRESSURE GPRESSURE VOLUME PRESSAVG GPRESSAVG
ENERGY: 700 165.7717 656.1182 2853.9876 0.0000 -198510.7200 20811.8758 69.1338 0.0000 0.0000 -173953.8328 0.0000 -173953.8328 -173953.8328 0.0000 15846.7785 -27084.1642 534946.2959 15846.7785 -27084.1642
ENERGY: 720 166.6137 654.6156 2847.3427 0.0000 -198799.7064 20922.5357 71.3640 0.0000 0.0000 -174137.2347 0.0000 -174137.2347 -174137.2347 0.0000 15907.8881 -5072.3043 534946.2959 15907.8881 -5072.3043
ENERGY: 740 260.5589 671.2163 2847.8065 0.0000 -199442.7803 21151.3980 78.2859 0.0000 0.0000 -174433.5147 0.0000 -174433.5147 -174433.5147 0.0000 15951.8604 -5097.7014 534946.2959 15951.8604 -5097.7014
ENERGY: 760 179.3395 669.3067 2839.4590 0.0000 -199968.6753 21356.7509 82.7358 0.0000 0.0000 -174841.0836 0.0000 -174841.0836 -174841.0836 0.0000 16099.3244 -5025.9119 534946.2959 16099.3244 -5025.9119
ENERGY: 780 173.6928 657.9256 2840.1337 0.0000 -200368.4876 21514.5433 86.3668 0.0000 0.0000 -175095.8254 0.0000 -175095.8254 -175095.8254 0.0000 16152.1962 -5006.7888 534946.2959 16152.1962 -5006.7888
ENERGY: 800 176.8360 660.8718 2838.8550 0.0000 -200725.8747 21652.2237 88.5704 0.0000 0.0000 -175308.5178 0.0000 -175308.5178 -175308.5178 0.0000 16228.8635 -4972.0560 534946.2959 16228.8635 -4972.0560
TCL: Setting parameter constraintScaling to 0.0390625
TCL: Minimizing for 100 steps
ETITLE: TS BOND ANGLE DIHED IMPRP ELECT VDW BOUNDARY MISC KINETIC TOTAL TEMP POTENTIAL TOTAL3 TEMPAVG PRESSURE GPRESSURE VOLUME PRESSAVG GPRESSAVG
ENERGY: 800 176.8360 660.8718 2838.8550 0.0000 -200725.8747 21652.2237 44.2852 0.0000 0.0000 -175352.8030 0.0000 -175352.8030 -175352.8030 0.0000 16269.8084 -27192.3056 534946.2959 16269.8084 -27192.3056
ENERGY: 820 160.0880 652.4808 2832.2538 0.0000 -200827.2514 21689.8405 44.6348 0.0000 0.0000 -175447.9535 0.0000 -175447.9535 -175447.9535 0.0000 16293.1743 -4920.9398 534946.2959 16293.1743 -4920.9398
ENERGY: 840 169.8773 650.1100 2833.7555 0.0000 -201049.7628 21765.4009 45.9692 0.0000 0.0000 -175584.6499 0.0000 -175584.6499 -175584.6499 0.0000 16320.3369 -4923.3199 534946.2959 16320.3369 -4923.3199
ENERGY: 860 190.6318 658.4313 2829.3476 0.0000 -201579.1008 21972.8651 48.6199 0.0000 0.0000 -175879.2052 0.0000 -175879.2052 -175879.2052 0.0000 16431.0666 -4878.2602 534946.2959 16431.0666 -4878.2602
ENERGY: 880 171.8264 687.3834 2829.5402 0.0000 -201852.8846 22074.9946 49.6571 0.0000 0.0000 -176039.4828 0.0000 -176039.4828 -176039.4828 0.0000 16473.0364 -4872.2743 534946.2959 16473.0364 -4872.2743
ENERGY: 900 168.3607 701.7211 2824.7847 0.0000 -202296.6834 22256.5749 51.5367 0.0000 0.0000 -176293.7053 0.0000 -176293.7053 -176293.7053 0.0000 16581.4918 -4815.5896 534946.2959 16581.4918 -4815.5896
TCL: Setting parameter constraintScaling to 0.01953125
TCL: Minimizing for 100 steps
ETITLE: TS BOND ANGLE DIHED IMPRP ELECT VDW BOUNDARY MISC KINETIC TOTAL TEMP POTENTIAL TOTAL3 TEMPAVG PRESSURE GPRESSURE VOLUME PRESSAVG GPRESSAVG
ENERGY: 900 168.3607 701.7211 2824.7847 0.0000 -202296.6834 22256.5749 25.7683 0.0000 0.0000 -176319.4736 0.0000 -176319.4736 -176319.4736 0.0000 16603.9758 -27242.1164 534946.2959 16603.9758 -27242.1164
ENERGY: 920 179.8067 677.4858 2826.0735 0.0000 -202468.5145 22327.6079 26.4206 0.0000 0.0000 -176431.1200 0.0000 -176431.1200 -176431.1200 0.0000 16624.1882 -4787.5282 534946.2959 16624.1882 -4787.5282
ENERGY: 940 176.0293 664.9126 2822.7893 0.0000 -202759.5910 22442.9901 27.2467 0.0000 0.0000 -176625.6231 0.0000 -176625.6231 -176625.6231 0.0000 16678.9441 -4763.0179 534946.2959 16678.9441 -4763.0179
ENERGY: 960 163.1544 653.7052 2819.6981 0.0000 -203068.6010 22566.6687 28.1292 0.0000 0.0000 -176837.2455 0.0000 -176837.2455 -176837.2455 0.0000 16752.2871 -4731.3032 534946.2959 16752.2871 -4731.3032
ENERGY: 980 201.6984 674.4174 2820.5632 0.0000 -203368.0429 22691.5491 28.8221 0.0000 0.0000 -176950.9927 0.0000 -176950.9927 -176950.9927 0.0000 16795.7789 -4721.4086 534946.2959 16795.7789 -4721.4086
ENERGY: 1000 179.0814 664.7015 2815.2922 0.0000 -203791.3731 22876.8713 29.8118 0.0000 0.0000 -177225.6150 0.0000 -177225.6150 -177225.6150 0.0000 16913.7628 -4656.5595 534946.2959 16913.7628 -4656.5595
TCL: Setting parameter constraintScaling to 0
TCL: Minimizing for 5000 steps
ETITLE: TS BOND ANGLE DIHED IMPRP ELECT VDW BOUNDARY MISC KINETIC TOTAL TEMP POTENTIAL TOTAL3 TEMPAVG PRESSURE GPRESSURE VOLUME PRESSAVG GPRESSAVG
ENERGY: 1000 179.0814 664.7015 2815.2922 0.0000 -203791.3731 22876.8713 0.0000 0.0000 0.0000 -177255.4268 0.0000 -177255.4268 -177255.4268 0.0000 16938.4874 -27264.0818 534946.2959 16938.4874 -27264.0818
ENERGY: 2000 172.2164 663.7343 2799.9537 0.0000 -214311.1905 27554.9215 0.0000 0.0000 0.0000 -183120.3646 0.0000 -183120.3646 -183120.3646 0.0000 19401.6473 -3359.8896 534946.2959 19401.6473 -3359.8896
ENERGY: 3000 167.3285 667.6213 2793.9231 0.0000 -217357.5518 28831.7117 0.0000 0.0000 0.0000 -184896.9672 0.0000 -184896.9672 -184896.9672 0.0000 20082.9536 -2998.8948 534946.2959 20082.9536 -2998.8948
ENERGY: 4000 166.3518 667.2687 2790.3069 0.0000 -218603.7302 29311.9986 0.0000 0.0000 0.0000 -185667.8042 0.0000 -185667.8042 -185667.8042 0.0000 20337.6317 -2853.3167 534946.2959 20337.6317 -2853.3167
ENERGY: 5000 165.4716 668.1585 2791.9048 0.0000 -219376.8070 29611.1778 0.0000 0.0000 0.0000 -186140.0944 0.0000 -186140.0944 -186140.0944 0.0000 20490.9253 -2789.3173 534946.2959 20490.9253 -2789.3173
ENERGY: 6000 165.4877 669.6040 2791.9838 0.0000 -219697.0305 29708.5908 0.0000 0.0000 0.0000 -186361.3642 0.0000 -186361.3642 -186361.3642 0.0000 20545.8279 -2769.7535 534946.2959 20545.8279 -2769.7535
