Info: SIMULATION PARAMETERS:
Info: TIMESTEP               1
Info: NUMBER OF STEPS        0
Info: STEPS PER CYCLE        10
Info: PERIODIC CELL BASIS 1  72.449 0 0
Info: PERIODIC CELL BASIS 2  0 93.247 0
Info: PERIODIC CELL BASIS 3  0 0 79.185
Info: PERIODIC CELL CENTER   -0.248 -0.156 -0.047
Info: WRAPPING WATERS AROUND PERIODIC BOUNDARIES ON OUTPUT.
Info: WRAPPING ALL CLUSTERS AROUND PERIODIC BOUNDARIES ON OUTPUT.
Info: FIRST LDB TIMESTEP     50
Info: LAST LDB TIMESTEP     -1
Info: HOM BACKGROUND SCALING 1
Info: PME BACKGROUND SCALING 1
Info: MIN ATOMS PER PATCH    40
Info: VELOCITY FILE          ../replicas/rep89/equilibration/eq1.vel
Info: CENTER OF MASS MOVING INITIALLY? NO
Info: DIELECTRIC             1
Info: EXCLUDE                SCALED ONE-FOUR
Info: 1-4 ELECTROSTATICS SCALED BY 0.833333
Info: MODIFIED 1-4 VDW PARAMETERS WILL BE USED
Info: DCD FILENAME           ../replicas/rep89/equilibration/eq2.dcd
Info: DCD FREQUENCY          5000
Info: DCD FIRST STEP         5000
Info: DCD FILE WILL CONTAIN UNIT CELL DATA
Info: XST FILENAME           ../replicas/rep89/equilibration/eq2.xst
Info: XST FREQUENCY          5000
Info: NO VELOCITY DCD OUTPUT
Info: NO FORCE DCD OUTPUT
Info: OUTPUT FILENAME        ../replicas/rep89/equilibration/eq2
Info: RESTART FILENAME       ../replicas/rep89/equilibration/eq2.restart
Info: RESTART FREQUENCY      5000
Info: BINARY RESTART FILES WILL BE USED
Info: SWITCHING ACTIVE
Info: SWITCHING ON           10
Info: SWITCHING OFF          12
Info: PAIRLIST DISTANCE      13.5
Info: PAIRLIST SHRINK RATE   0.01
Info: PAIRLIST GROW RATE     0.01
Info: PAIRLIST TRIGGER       0.3
Info: PAIRLISTS PER CYCLE    2
Info: PAIRLISTS ENABLED
Info: MARGIN                 0.48
Info: HYDROGEN GROUP CUTOFF  2.5
Info: PATCH DIMENSION        16.48
Info: ENERGY OUTPUT STEPS    500
Info: CROSSTERM ENERGY INCLUDED IN DIHEDRAL
Info: TIMING OUTPUT STEPS    5000
Info: PRESSURE OUTPUT STEPS  500
Info: HARMONIC CONSTRAINTS ACTIVE
Info: HARMONIC CONS EXP      2
Info: HARMONIC CONS SCALING  10
Info: LANGEVIN DYNAMICS ACTIVE
Info: LANGEVIN TEMPERATURE   300
Info: LANGEVIN USING BBK INTEGRATOR
Info: LANGEVIN DAMPING COEFFICIENT IS 5 INVERSE PS
Info: LANGEVIN DYNAMICS NOT APPLIED TO HYDROGENS
Info: BERENDSEN PRESSURE COUPLING ACTIVE
Info:     TARGET PRESSURE IS 1 BAR
Info:     COMPRESSIBILITY ESTIMATE IS 4.57e-05 BAR^(-1)
Info:     RELAXATION TIME IS 100 FS
Info:     APPLIED EVERY 2 STEPS
Info:     PRESSURE CONTROL IS GROUP-BASED
Info:       CELL FLUCTUATION IS ISOTROPIC
Info: PARTICLE MESH EWALD (PME) ACTIVE
Info: PME TOLERANCE               1e-06
Info: PME EWALD COEFFICIENT       0.257952
Info: PME INTERPOLATION ORDER     4
Info: PME GRID DIMENSIONS         80 96 80
Info: PME MAXIMUM GRID SPACING    1
Info: FULL ELECTROSTATIC EVALUATION FREQUENCY      2
Info: USING VERLET I (r-RESPA) MTS SCHEME.
Info: C1 SPLITTING OF LONG RANGE ELECTROSTATICS
Info: PLACING ATOMS IN PATCHES BY HYDROGEN GROUPS
Info: RIGID BONDS TO HYDROGEN : WATER
Info:         ERROR TOLERANCE : 1e-05
Info:          MAX ITERATIONS : 100
Info: RIGID WATER USING SETTLE ALGORITHM
Info: RANDOM NUMBER SEED     1503694529
Info: USE HYDROGEN BONDS?    NO
Info: Using AMBER format force field!
Info: AMBER PARM FILE        ../build/complex.top
Info: COORDINATE PDB         ../replicas/rep89/equilibration/eq1.coor
Info: Exclusions in PARM file will be ignored!
Info: SCNB (VDW SCALING)     2
Info: USING ARITHMETIC MEAN TO COMBINE L-J SIGMA PARAMETERS
Info: SUMMARY OF PARAMETERS:
Info: 71 BONDS
Info: 145 ANGLES
Info: 76 DIHEDRAL
Info: 0 IMPROPER
Info: 0 CROSSTERM
Info: 0 VDW
Info: 190 VDW_PAIRS
Info: 0 NBTHOLE_PAIRS
Info: STRUCTURE SUMMARY:
Info: 49394 ATOMS
Info: 49448 BONDS
Info: 8698 ANGLES
Info: 18780 DIHEDRALS
Info: 0 IMPROPERS
Info: 0 CROSSTERMS
Info: 0 EXCLUSIONS
Info: 2336 CONSTRAINTS
Info: 44667 RIGID BONDS
Info: 103515 DEGREES OF FREEDOM
Info: 17225 HYDROGEN GROUPS
Info: 4 ATOMS IN LARGEST HYDROGEN GROUP
Info: 17225 MIGRATION GROUPS
Info: 4 ATOMS IN LARGEST MIGRATION GROUP
Info: TOTAL MASS = 301478 amu
Info: TOTAL CHARGE = 1.00115e-05 e
Info: MASS DENSITY = 0.935846 g/cm^3
Info: ATOM DENSITY = 0.0923345 atoms/A^3
Info: ADDED 70656 IMPLICIT EXCLUSIONS
Info: NONBONDED TABLE R-SQUARED SPACING: 0.0625
Info: NONBONDED TABLE SIZE: 769 POINTS
Info: REMOVING COM VELOCITY 0.00483304 -0.0288512 0.0198792
TCL: Running for 5000 steps
ETITLE: TS BOND ANGLE DIHED IMPRP ELECT VDW BOUNDARY MISC KINETIC TOTAL TEMP POTENTIAL TOTAL3 TEMPAVG PRESSURE GPRESSURE VOLUME PRESSAVG GPRESSAVG
ENERGY: 0 393.1935 1198.4304 2922.1659 0.0000 -212891.4129 29718.5500 0.0000 0.0000 10071.3626 -168587.7105 97.9209 -178659.0730 -168578.1114 97.9209 -2304.1536 -2406.2475 534946.2959 -2304.1536 -2406.2475
ENERGY: 1000 1234.0290 2008.3916 3105.9470 0.0000 -193489.3750 26403.4951 774.1306 0.0000 24154.1519 -135809.2298 234.8437 -159963.3817 -135775.4230 218.5495 -67.0079 -8.3995 522648.1834 -14.9919 -15.2219
ENERGY: 2000 1472.9614 2212.6176 3139.9210 0.0000 -184484.6264 23513.8318 814.5076 0.0000 28074.4008 -125256.3862 272.9591 -153330.7870 -125220.4744 264.4323 -37.7887 -29.9441 515366.2979 -33.2443 -33.6933
ENERGY: 3000 1473.5714 2233.7195 3128.8668 0.0000 -179167.4003 21520.3953 821.8952 0.0000 29551.8439 -120437.1080 287.3239 -149988.9520 -120391.4706 284.1468 -65.1540 -13.4840 510016.7590 -17.8087 -18.1058
ENERGY: 4000 1535.5021 2294.1178 3167.6708 0.0000 -177456.2920 21088.4682 772.5220 0.0000 30270.8381 -118327.1731 294.3144 -148598.0111 -118289.1870 293.0027 -36.5962 -15.1630 506587.7726 -13.7468 -13.8152
ENERGY: 5000 1520.2548 2217.2465 3155.3778 0.0000 -175778.3451 20404.3131 782.5899 0.0000 30577.5568 -117121.0061 297.2966 -147698.5629 -117078.4523 296.7792 -53.1325 -23.0775 506381.9866 16.8099 17.1501
TCL: Setting parameter constraintScaling to 5.0
TCL: Running for 5000 steps
ETITLE: TS BOND ANGLE DIHED IMPRP ELECT VDW BOUNDARY MISC KINETIC TOTAL TEMP POTENTIAL TOTAL3 TEMPAVG PRESSURE GPRESSURE VOLUME PRESSAVG GPRESSAVG
ENERGY: 5000 1520.2548 2217.2465 3155.3778 0.0000 -175778.3451 20404.3131 391.2949 0.0000 30575.5035 -117514.3544 297.2766 -148089.8579 -117470.7417 297.2766 -139.8115 -106.2065 506381.9866 -139.8115 -106.2065
ENERGY: 6000 1602.1035 2343.9802 3180.0728 0.0000 -175790.4824 20429.9072 635.8288 0.0000 30838.9139 -116759.6761 299.8377 -147598.5899 -116723.8848 298.6685 -37.9238 43.2191 506542.4515 10.1130 9.7042
ENERGY: 7000 1632.6641 2314.7785 3185.9657 0.0000 -175184.7156 20072.1236 644.8426 0.0000 30696.7191 -116637.6221 298.4551 -147334.3412 -116603.9995 299.8228 -146.1245 -31.2988 505467.2321 0.5745 0.7253
ENERGY: 8000 1583.2414 2309.3371 3145.4004 0.0000 -175682.6287 20272.3894 647.5879 0.0000 30734.9043 -116989.7682 298.8264 -147724.6725 -116945.9909 299.0252 -48.0686 3.7288 502589.6452 -10.7393 -10.8157
ENERGY: 9000 1621.0148 2313.7758 3161.6355 0.0000 -175334.8380 20045.9814 632.6453 0.0000 30695.2334 -116864.5517 298.4407 -147559.7852 -116811.8982 298.9738 -51.2624 -14.8341 503875.9937 -4.0016 -4.1676
ENERGY: 10000 1619.3843 2333.7634 3148.6951 0.0000 -175749.2435 20159.3155 658.8184 0.0000 30720.4043 -117108.8625 298.6854 -147829.2668 -117068.3456 298.7526 -37.5747 23.3226 501878.1232 -0.1382 -0.6036
TCL: Setting parameter constraintScaling to 2.5
TCL: Running for 5000 steps
ETITLE: TS BOND ANGLE DIHED IMPRP ELECT VDW BOUNDARY MISC KINETIC TOTAL TEMP POTENTIAL TOTAL3 TEMPAVG PRESSURE GPRESSURE VOLUME PRESSAVG GPRESSAVG
ENERGY: 10000 1619.3843 2333.7634 3148.6951 0.0000 -175749.2435 20159.3155 329.4092 0.0000 30718.3573 -117440.3187 298.6655 -148158.6760 -117396.0367 298.6655 -95.3901 -43.0885 501878.1232 -95.3901 -43.0885
ENERGY: 11000 1589.6559 2409.2948 3161.3796 0.0000 -175337.0461 20035.4740 503.1819 0.0000 30692.5131 -116945.5467 298.4142 -147638.0599 -116896.9196 299.8740 86.6712 70.2153 501869.4055 -0.8673 -0.8792
ENERGY: 12000 1587.4633 2410.5930 3173.7247 0.0000 -175742.6215 20230.1227 493.8183 0.0000 30654.3260 -117192.5734 298.0430 -147846.8994 -117145.3135 300.0598 64.6293 18.3107 500464.2604 -1.7239 -2.1680
ENERGY: 13000 1610.6460 2349.8115 3185.5066 0.0000 -176135.3716 20380.1467 476.4749 0.0000 30917.3607 -117215.4253 300.6004 -148132.7860 -117164.5604 299.1913 -32.5801 -6.7929 500216.0827 6.1054 6.8323
ENERGY: 14000 1637.3082 2329.5319 3181.4057 0.0000 -176263.3286 20380.4852 502.8072 0.0000 30571.2004 -117660.5899 297.2348 -148231.7904 -117625.2843 299.2147 94.8675 51.6880 498667.3397 -18.2488 -17.8174
ENERGY: 15000 1642.9789 2434.9454 3134.2233 0.0000 -175992.1340 20305.7697 516.7830 0.0000 30757.5283 -117199.9053 299.0464 -147957.4336 -117162.0775 299.5116 32.6007 0.3090 499592.9028 -5.5440 -5.9635
TCL: Setting parameter constraintScaling to 1.25
TCL: Running for 5000 steps
ETITLE: TS BOND ANGLE DIHED IMPRP ELECT VDW BOUNDARY MISC KINETIC TOTAL TEMP POTENTIAL TOTAL3 TEMPAVG PRESSURE GPRESSURE VOLUME PRESSAVG GPRESSAVG
ENERGY: 15000 1642.9789 2434.9454 3134.2233 0.0000 -175992.1340 20305.7697 258.3915 0.0000 30755.5106 -117460.3145 299.0267 -148215.8251 -117419.4982 299.0267 26.6100 -11.4728 499592.9028 26.6100 -11.4728
ENERGY: 16000 1624.7775 2376.1681 3208.9855 0.0000 -176050.6696 20003.7739 417.0486 0.0000 30911.3747 -117508.5413 300.5422 -148419.9160 -117456.8361 299.8973 -30.3645 -36.5207 499055.9503 8.6316 8.7045
ENERGY: 17000 1637.8920 2364.6826 3198.6146 0.0000 -176242.3804 20365.2167 406.1461 0.0000 30894.9993 -117374.8290 300.3830 -148269.8284 -117324.8390 299.2774 -79.3592 -36.0278 499429.5456 -8.9134 -8.6714
ENERGY: 18000 1621.2978 2394.7400 3166.4500 0.0000 -176004.8141 19969.1288 422.5326 0.0000 30730.2570 -117700.4080 298.7812 -148430.6650 -117663.1191 298.9253 -131.1622 -17.5467 498415.6219 -4.9844 -4.6494
ENERGY: 19000 1584.6096 2363.6004 3186.6100 0.0000 -175914.4418 20032.6326 406.9978 0.0000 30734.1352 -117605.8561 298.8189 -148339.9913 -117557.6165 299.2952 -45.4592 -73.4360 498221.1211 -3.6362 -3.8330
ENERGY: 20000 1614.3835 2350.1717 3179.1151 0.0000 -176235.4192 20355.0665 404.8684 0.0000 30921.0118 -117410.8022 300.6359 -148331.8140 -117361.2637 298.6140 -78.8647 -73.3909 498728.6620 3.7819 4.3991
TCL: Setting parameter constraintScaling to 0.625
TCL: Running for 5000 steps
ETITLE: TS BOND ANGLE DIHED IMPRP ELECT VDW BOUNDARY MISC KINETIC TOTAL TEMP POTENTIAL TOTAL3 TEMPAVG PRESSURE GPRESSURE VOLUME PRESSAVG GPRESSAVG
ENERGY: 20000 1614.3835 2350.1717 3179.1151 0.0000 -176235.4192 20355.0665 202.4342 0.0000 30918.9753 -117615.2729 300.6161 -148534.2482 -117570.3573 300.6161 -57.7517 -56.4252 498728.6620 -57.7517 -56.4252
ENERGY: 21000 1629.1791 2404.7010 3211.3292 0.0000 -175485.4750 19936.0361 309.2972 0.0000 31106.5237 -116888.4086 302.4395 -147994.9323 -116850.7007 300.4978 9.5396 -19.9718 499305.8422 2.1210 2.3284
ENERGY: 22000 1643.4595 2273.7412 3215.8587 0.0000 -175505.9971 20086.0284 307.2118 0.0000 30951.9666 -117027.7309 300.9368 -147979.6975 -116986.1569 301.2412 -41.4495 -16.4926 499093.9019 9.4056 9.7007
ENERGY: 23000 1631.7756 2295.0933 3238.9239 0.0000 -175789.0717 20157.4987 322.6937 0.0000 30870.4797 -117272.6068 300.1446 -148143.0864 -117234.4978 299.6777 -21.1123 -5.0362 498485.7044 0.9965 0.6939
ENERGY: 24000 1645.6847 2370.8477 3179.6491 0.0000 -175644.0318 19959.4276 324.4128 0.0000 30948.7531 -117215.2568 300.9056 -148164.0099 -117165.5427 300.6519 -134.8113 -57.3376 498257.9776 -9.2294 -8.6789
ENERGY: 25000 1657.9156 2338.3160 3198.9794 0.0000 -175429.2816 19954.7252 355.3663 0.0000 30734.3656 -117189.6135 298.8212 -147923.9791 -117146.6220 300.1145 -77.3064 -8.6841 496867.0032 -18.9014 -18.3442
TCL: Setting parameter constraintScaling to 0.3125
TCL: Running for 5000 steps
ETITLE: TS BOND ANGLE DIHED IMPRP ELECT VDW BOUNDARY MISC KINETIC TOTAL TEMP POTENTIAL TOTAL3 TEMPAVG PRESSURE GPRESSURE VOLUME PRESSAVG GPRESSAVG
ENERGY: 25000 1657.9156 2338.3160 3198.9794 0.0000 -175429.2816 19954.7252 177.6831 0.0000 30732.3105 -117369.3517 298.8012 -148101.6622 -117327.4107 298.8012 -109.3371 -44.7938 496867.0032 -109.3371 -44.7938
ENERGY: 26000 1598.5646 2397.8881 3183.4605 0.0000 -175622.7177 20097.5360 241.7002 0.0000 30826.6108 -117276.9573 299.7180 -148103.5682 -117232.9559 299.7282 34.6773 -16.6801 497756.2355 7.0170 6.8150
ENERGY: 27000 1640.9561 2366.0812 3214.5729 0.0000 -176008.2146 20149.4066 249.7813 0.0000 30926.5958 -117460.8207 300.6902 -148387.4164 -117415.4926 300.0345 -117.2394 -110.2158 497828.0145 1.4702 1.6074
ENERGY: 28000 1629.3936 2335.5411 3237.4317 0.0000 -175829.4273 20088.2566 255.8132 0.0000 30742.5257 -117540.4653 298.9005 -148282.9910 -117498.8676 298.9803 39.5391 78.2355 497126.0922 -0.9775 -1.2018
ENERGY: 29000 1614.3487 2382.6288 3194.7982 0.0000 -175921.7215 20104.5540 251.5665 0.0000 30829.1890 -117544.6363 299.7431 -148373.8253 -117497.2776 299.3175 127.6087 99.7662 496360.9067 -13.3908 -12.8009
ENERGY: 30000 1596.5645 2476.3704 3191.0535 0.0000 -175849.9895 20044.5967 256.9221 0.0000 30823.2600 -117461.2222 299.6855 -148284.4822 -117411.5247 300.6548 -53.8182 -34.5356 497444.4547 19.6337 19.2461
TCL: Setting parameter constraintScaling to 0.15625
TCL: Running for 5000 steps
ETITLE: TS BOND ANGLE DIHED IMPRP ELECT VDW BOUNDARY MISC KINETIC TOTAL TEMP POTENTIAL TOTAL3 TEMPAVG PRESSURE GPRESSURE VOLUME PRESSAVG GPRESSAVG
ENERGY: 30000 1596.5645 2476.3704 3191.0535 0.0000 -175849.9895 20044.5967 128.4610 0.0000 30821.2136 -117591.7297 299.6656 -148412.9433 -117545.2576 299.6656 -48.7603 -23.4777 497444.4547 -48.7603 -23.4777
ENERGY: 31000 1600.6879 2427.1428 3215.3988 0.0000 -175466.0386 20006.9702 200.0425 0.0000 30598.4978 -117417.2986 297.5002 -148015.7964 -117361.8859 299.8166 -25.5336 -29.0401 496182.6615 -0.9296 -0.4949
ENERGY: 32000 1663.9262 2417.6601 3183.3509 0.0000 -175666.8340 19964.8197 202.4574 0.0000 30642.2229 -117592.3968 297.9253 -148234.6197 -117551.0093 300.0093 -111.5816 -68.0503 497076.5967 8.9527 8.6603
ENERGY: 33000 1623.2506 2377.4019 3203.6530 0.0000 -176120.4671 20109.7427 217.1831 0.0000 31017.0191 -117572.2166 301.5693 -148589.2358 -117522.1467 300.1482 -97.3586 -37.1749 498187.8384 13.1426 13.0106
ENERGY: 34000 1631.2890 2363.0832 3178.5945 0.0000 -176166.7968 20310.9543 202.7753 0.0000 30591.4959 -117888.6046 297.4321 -148480.1005 -117847.3387 299.0776 45.7962 14.0954 498651.6312 -9.0741 -9.0164
ENERGY: 35000 1657.0125 2375.0785 3225.0454 0.0000 -176024.5274 20151.8828 201.5210 0.0000 30949.3313 -117464.6559 300.9112 -148413.9872 -117410.1805 298.5954 -43.6102 -23.4091 498932.6647 -7.1104 -7.0195
TCL: Setting parameter constraintScaling to 0.078125
TCL: Running for 5000 steps
ETITLE: TS BOND ANGLE DIHED IMPRP ELECT VDW BOUNDARY MISC KINETIC TOTAL TEMP POTENTIAL TOTAL3 TEMPAVG PRESSURE GPRESSURE VOLUME PRESSAVG GPRESSAVG
ENERGY: 35000 1657.0125 2375.0785 3225.0454 0.0000 -176024.5274 20151.8828 100.7605 0.0000 30947.2646 -117567.4831 300.8911 -148514.7477 -117528.7533 300.8911 -25.2967 -13.4494 498932.6647 -25.2967 -13.4494
ENERGY: 36000 1613.4793 2421.4536 3234.1468 0.0000 -176007.1229 19996.1309 132.1747 0.0000 31029.2165 -117580.5212 301.6879 -148609.7377 -117526.5912 299.2646 -156.5198 -113.5961 496357.3024 -8.0093 -8.5453
ENERGY: 37000 1630.7800 2413.9707 3200.2773 0.0000 -175893.3553 20220.8772 155.3401 0.0000 30809.0384 -117463.0717 299.5472 -148272.1100 -117420.3272 299.7764 -20.8566 -24.4535 497950.9640 6.8681 6.8884
ENERGY: 38000 1692.2011 2375.4891 3206.2554 0.0000 -176267.4471 20220.5897 166.1991 0.0000 30856.7963 -117749.9165 300.0115 -148606.7128 -117697.3636 299.0009 -93.4790 -7.5878 496159.5335 -18.6915 -18.5048
ENERGY: 39000 1621.5262 2430.7174 3204.1001 0.0000 -176188.1453 20096.7212 162.2045 0.0000 30674.8523 -117998.0236 298.2425 -148672.8760 -117957.5772 298.6969 -261.9998 -119.5709 497305.7926 2.6328 2.2779
ENERGY: 40000 1669.8440 2361.8668 3206.5509 0.0000 -175655.1087 20051.2507 155.8808 0.0000 30838.0000 -117371.7154 299.8288 -148209.7155 -117325.1420 300.1013 -95.7789 11.6168 499084.5363 8.9451 8.7039
TCL: Setting parameter constraintScaling to 0.0390625
TCL: Running for 5000 steps
ETITLE: TS BOND ANGLE DIHED IMPRP ELECT VDW BOUNDARY MISC KINETIC TOTAL TEMP POTENTIAL TOTAL3 TEMPAVG PRESSURE GPRESSURE VOLUME PRESSAVG GPRESSAVG
ENERGY: 40000 1669.8440 2361.8668 3206.5509 0.0000 -175655.1087 20051.2507 77.9404 0.0000 30835.9644 -117451.6915 299.8090 -148287.6559 -117409.9907 299.8090 -111.9210 -4.6736 499084.5363 -111.9210 -4.6736
ENERGY: 41000 1700.6769 2423.6066 3176.7562 0.0000 -175782.0062 20104.3544 112.8017 0.0000 30590.6997 -117673.1106 297.4243 -148263.8103 -117624.7142 298.5189 -46.6249 88.6538 497603.5475 3.2882 3.2136
ENERGY: 42000 1606.1312 2429.9006 3178.6105 0.0000 -175906.1344 20111.5066 109.8374 0.0000 30526.1587 -117943.9894 296.7968 -148470.1480 -117907.3944 298.6416 -122.5976 8.0248 496991.6809 5.5665 5.4116
ENERGY: 43000 1577.9346 2447.6800 3197.0552 0.0000 -175934.3274 20132.0119 119.3983 0.0000 30819.7416 -117640.5057 299.6512 -148460.2473 -117591.4206 300.0662 -48.5808 28.6228 496154.8918 -5.6977 -5.9144
ENERGY: 44000 1683.2694 2392.1043 3178.0343 0.0000 -175621.0920 20008.0442 113.2918 0.0000 30705.1569 -117541.1912 298.5372 -148246.3481 -117506.4115 299.5088 91.1495 24.0731 496192.7649 -3.0766 -2.9728
ENERGY: 45000 1726.3688 2433.7477 3196.6371 0.0000 -175498.1441 19893.7610 123.7607 0.0000 31110.1934 -117013.6755 302.4752 -148123.8688 -116970.2560 300.2567 -22.5573 39.7658 496919.7449 8.9081 8.9126
TCL: Setting parameter constraintScaling to 0.01953125
TCL: Running for 5000 steps
ETITLE: TS BOND ANGLE DIHED IMPRP ELECT VDW BOUNDARY MISC KINETIC TOTAL TEMP POTENTIAL TOTAL3 TEMPAVG PRESSURE GPRESSURE VOLUME PRESSAVG GPRESSAVG
ENERGY: 45000 1726.3688 2433.7477 3196.6371 0.0000 -175498.1441 19893.7610 61.8804 0.0000 31108.1094 -117077.6398 302.4550 -148185.7492 -117035.8291 302.4550 -22.8413 33.3793 496919.7449 -22.8413 33.3793
ENERGY: 46000 1684.5028 2441.7071 3242.2756 0.0000 -175751.1712 19939.8670 84.3740 0.0000 30917.9760 -117440.4687 300.6064 -148358.4447 -117402.0241 300.2314 -112.8167 -59.4791 496725.4689 -8.2113 -8.1705
ENERGY: 47000 1653.5525 2366.5975 3203.5702 0.0000 -175859.8730 20109.4972 80.9939 0.0000 30906.8138 -117538.8478 300.4978 -148445.6617 -117495.5262 300.5744 37.2550 50.6595 497742.3527 9.1020 9.0329
ENERGY: 48000 1614.6262 2384.6662 3158.8183 0.0000 -175753.4438 20006.3397 89.1817 0.0000 31019.6814 -117480.1303 301.5952 -148499.8117 -117431.3660 300.5585 33.5668 116.3307 496799.7158 -4.8648 -5.5698
ENERGY: 49000 1607.0899 2456.9755 3169.3938 0.0000 -176245.4933 20216.7377 84.8811 0.0000 30741.0429 -117969.3724 298.8861 -148710.4152 -117927.8923 299.2762 -121.7510 21.8792 495739.6076 -1.1456 -0.9779
ENERGY: 50000 1616.3489 2469.4685 3202.2733 0.0000 -175574.8208 19944.8233 92.3612 0.0000 30667.8730 -117581.6727 298.1747 -148249.5457 -117551.2812 300.6523 -31.5192 -70.4778 498290.6982 13.6245 13.5092
TCL: Setting parameter constraintScaling to 0
TCL: Running for 5000 steps
ETITLE: TS BOND ANGLE DIHED IMPRP ELECT VDW BOUNDARY MISC KINETIC TOTAL TEMP POTENTIAL TOTAL3 TEMPAVG PRESSURE GPRESSURE VOLUME PRESSAVG GPRESSAVG
ENERGY: 50000 1616.3489 2469.4685 3202.2733 0.0000 -175574.8208 19944.8233 0.0000 0.0000 30665.8207 -117676.0862 298.1547 -148341.9069 -117629.7855 298.1547 -29.7063 -77.5922 498290.6982 -29.7063 -77.5922
ENERGY: 51000 1670.9839 2423.6745 3194.3057 0.0000 -176118.0742 20272.0029 0.0000 0.0000 30659.6712 -117897.4359 298.0949 -148557.1071 -117855.7735 299.8090 147.8256 112.6635 497557.4798 -0.7472 -0.7068
ENERGY: 52000 1643.6110 2415.0693 3212.8519 0.0000 -176060.0714 20021.9773 0.0000 0.0000 30716.2903 -118050.2717 298.6454 -148766.5620 -117991.3673 298.4510 -6.8763 7.6074 495852.1212 -6.8335 -6.5171
ENERGY: 53000 1614.9500 2385.4619 3209.4488 0.0000 -175962.5392 20032.3277 0.0000 0.0000 30768.7528 -117951.5979 299.1555 -148720.3507 -117903.7046 298.6983 -49.9823 -25.5284 496320.6255 8.6098 8.7942
ENERGY: 54000 1585.9408 2390.5737 3241.4255 0.0000 -176051.5688 20113.2068 0.0000 0.0000 30896.4521 -117823.9699 300.3971 -148720.4220 -117768.3757 299.6864 -23.2836 -14.9050 496048.8068 2.5349 2.1734
ENERGY: 55000 1641.9034 2395.3923 3192.1606 0.0000 -175704.5920 19761.9285 0.0000 0.0000 31057.5655 -117655.6417 301.9635 -148713.2072 -117600.6474 300.9439 -70.2575 -38.4977 496669.1781 -1.4665 -1.8472
