Info: SIMULATION PARAMETERS:
Info: TIMESTEP               2
Info: NUMBER OF STEPS        0
Info: STEPS PER CYCLE        10
Info: PERIODIC CELL BASIS 1  72.449 0 0
Info: PERIODIC CELL BASIS 2  0 93.247 0
Info: PERIODIC CELL BASIS 3  0 0 79.185
Info: PERIODIC CELL CENTER   -0.248 -0.156 -0.047
Info: WRAPPING WATERS AROUND PERIODIC BOUNDARIES ON OUTPUT.
Info: WRAPPING ALL CLUSTERS AROUND PERIODIC BOUNDARIES ON OUTPUT.
Info: FIRST LDB TIMESTEP     50
Info: LAST LDB TIMESTEP     -1
Info: HOM BACKGROUND SCALING 1
Info: PME BACKGROUND SCALING 1
Info: MIN ATOMS PER PATCH    40
Info: INITIAL TEMPERATURE    0
Info: CENTER OF MASS MOVING INITIALLY? NO
Info: DIELECTRIC             1
Info: EXCLUDE                SCALED ONE-FOUR
Info: 1-4 ELECTROSTATICS SCALED BY 0.833333
Info: MODIFIED 1-4 VDW PARAMETERS WILL BE USED
Info: NO DCD TRAJECTORY OUTPUT
Info: NO EXTENDED SYSTEM TRAJECTORY OUTPUT
Info: NO VELOCITY DCD OUTPUT
Info: NO FORCE DCD OUTPUT
Info: OUTPUT FILENAME        ../replicas/rep68/equilibration/eq0
Info: NO RESTART FILE
Info: SWITCHING ACTIVE
Info: SWITCHING ON           10
Info: SWITCHING OFF          12
Info: PAIRLIST DISTANCE      13.5
Info: PAIRLIST SHRINK RATE   0.01
Info: PAIRLIST GROW RATE     0.01
Info: PAIRLIST TRIGGER       0.3
Info: PAIRLISTS PER CYCLE    2
Info: PAIRLISTS ENABLED
Info: MARGIN                 0
Info: HYDROGEN GROUP CUTOFF  2.5
Info: PATCH DIMENSION        16
Info: ENERGY OUTPUT STEPS    500
Info: CROSSTERM ENERGY INCLUDED IN DIHEDRAL
Info: TIMING OUTPUT STEPS    5000
Info: PRESSURE OUTPUT STEPS  500
Info: HARMONIC CONSTRAINTS ACTIVE
Info: HARMONIC CONS EXP      2
Info: HARMONIC CONS SCALING  10
Info: CONJUGATE GRADIENT MINIMIZATION ACTIVE
Info: LINE MINIMIZATION GOAL = 0.001
Info: BABY STEP SIZE = 0.01
Info: TINY STEP SIZE = 1e-06
Info: PARTICLE MESH EWALD (PME) ACTIVE
Info: PME TOLERANCE               1e-06
Info: PME EWALD COEFFICIENT       0.257952
Info: PME INTERPOLATION ORDER     4
Info: PME GRID DIMENSIONS         80 96 80
Info: PME MAXIMUM GRID SPACING    1
Info: FULL ELECTROSTATIC EVALUATION FREQUENCY      2
Info: USING VERLET I (r-RESPA) MTS SCHEME.
Info: C1 SPLITTING OF LONG RANGE ELECTROSTATICS
Info: PLACING ATOMS IN PATCHES BY HYDROGEN GROUPS
Info: RIGID BONDS TO HYDROGEN : ALL
Info:         ERROR TOLERANCE : 1e-05
Info:          MAX ITERATIONS : 100
Info: RIGID WATER USING SETTLE ALGORITHM
Info: RANDOM NUMBER SEED     1503691519
Info: USE HYDROGEN BONDS?    NO
Info: Using AMBER format force field!
Info: AMBER PARM FILE        ../build/complex.top
Info: COORDINATE PDB         ../build/complex.pdb
Info: Exclusions in PARM file will be ignored!
Info: SCNB (VDW SCALING)     2
Info: USING ARITHMETIC MEAN TO COMBINE L-J SIGMA PARAMETERS
Info: SUMMARY OF PARAMETERS:
Info: 71 BONDS
Info: 145 ANGLES
Info: 76 DIHEDRAL
Info: 0 IMPROPER
Info: 0 CROSSTERM
Info: 0 VDW
Info: 190 VDW_PAIRS
Info: 0 NBTHOLE_PAIRS
Info: STRUCTURE SUMMARY:
Info: 49394 ATOMS
Info: 49448 BONDS
Info: 8698 ANGLES
Info: 18780 DIHEDRALS
Info: 0 IMPROPERS
Info: 0 CROSSTERMS
Info: 0 EXCLUSIONS
Info: 2336 CONSTRAINTS
Info: 47058 RIGID BONDS
Info: 101124 DEGREES OF FREEDOM
Info: 17225 HYDROGEN GROUPS
Info: 4 ATOMS IN LARGEST HYDROGEN GROUP
Info: 17225 MIGRATION GROUPS
Info: 4 ATOMS IN LARGEST MIGRATION GROUP
Info: TOTAL MASS = 301478 amu
Info: TOTAL CHARGE = 1.00115e-05 e
Info: MASS DENSITY = 0.935846 g/cm^3
Info: ATOM DENSITY = 0.0923345 atoms/A^3
Info: ADDED 70656 IMPLICIT EXCLUSIONS
Info: NONBONDED TABLE R-SQUARED SPACING: 0.0625
Info: NONBONDED TABLE SIZE: 769 POINTS
Info: REMOVING COM VELOCITY 0 0 0
TCL: Minimizing for 100 steps
ETITLE: TS BOND ANGLE DIHED IMPRP ELECT VDW BOUNDARY MISC KINETIC TOTAL TEMP POTENTIAL TOTAL3 TEMPAVG PRESSURE GPRESSURE VOLUME PRESSAVG GPRESSAVG
ENERGY: 0 155.4176 1012.2698 2855.7272 0.0000 -154496.7911 207729.2052 0.0468 0.0000 0.0000 57255.8755 0.0000 57255.8755 57255.8755 0.0000 116350.2532 86546.1670 534946.2959 116350.2532 86546.1670
ENERGY: 20 304.7526 935.7909 2893.4663 0.0000 -158672.9388 17936.6604 143.9453 0.0000 0.0000 -136458.3233 0.0000 -136458.3233 -136458.3233 0.0000 16523.9398 -239.4546 534946.2959 16523.9398 -239.4546
ENERGY: 40 198.7403 799.5721 2896.9273 0.0000 -162811.4543 16417.9533 221.3029 0.0000 0.0000 -142276.9584 0.0000 -142276.9584 -142276.9584 0.0000 15011.2700 -2135.4702 534946.2959 15011.2700 -2135.4702
ENERGY: 60 130.5286 715.3440 2898.2165 0.0000 -167496.1549 15446.7543 315.2795 0.0000 0.0000 -147990.0319 0.0000 -147990.0319 -147990.0319 0.0000 13793.8843 -3799.3980 534946.2959 13793.8843 -3799.3980
ENERGY: 80 431.2770 765.6315 2904.3781 0.0000 -169937.5168 15121.1539 372.0119 0.0000 0.0000 -150343.0645 0.0000 -150343.0645 -150343.0645 0.0000 13270.3342 -4577.2411 534946.2959 13270.3342 -4577.2411
ENERGY: 100 119.3904 710.0605 2905.2587 0.0000 -171259.7185 14991.7863 387.3612 0.0000 0.0000 -152145.8614 0.0000 -152145.8614 -152145.8614 0.0000 13056.2647 -4908.1745 534946.2959 13056.2647 -4908.1745
TCL: Setting parameter constraintScaling to 5.0
TCL: Minimizing for 100 steps
ETITLE: TS BOND ANGLE DIHED IMPRP ELECT VDW BOUNDARY MISC KINETIC TOTAL TEMP POTENTIAL TOTAL3 TEMPAVG PRESSURE GPRESSURE VOLUME PRESSAVG GPRESSAVG
ENERGY: 100 119.3904 710.0605 2905.2587 0.0000 -171259.7185 14991.7863 193.6806 0.0000 0.0000 -152339.5420 0.0000 -152339.5420 -152339.5420 0.0000 13672.7709 -23021.8204 534946.2959 13672.7709 -23021.8204
ENERGY: 120 166.4512 692.2080 2910.8260 0.0000 -172914.7619 14833.3503 281.9268 0.0000 0.0000 -154029.9996 0.0000 -154029.9996 -154029.9996 0.0000 13225.2921 -4913.0005 534946.2959 13225.2921 -4913.0005
ENERGY: 140 225.1458 696.9090 2912.9610 0.0000 -174149.5753 14732.6695 321.1887 0.0000 0.0000 -155260.7013 0.0000 -155260.7013 -155260.7013 0.0000 12997.6151 -5265.6780 534946.2959 12997.6151 -5265.6780
ENERGY: 160 270.3366 684.1822 2923.2969 0.0000 -176285.3081 14758.1488 383.2854 0.0000 0.0000 -157266.0581 0.0000 -157266.0581 -157266.0581 0.0000 12739.4500 -5745.9974 534946.2959 12739.4500 -5745.9974
ENERGY: 180 172.6598 724.9589 2929.2192 0.0000 -179193.2308 15054.2776 478.3684 0.0000 0.0000 -159833.7468 0.0000 -159833.7468 -159833.7468 0.0000 12525.3577 -6234.1873 534946.2959 12525.3577 -6234.1873
ENERGY: 200 239.7819 694.0979 2941.4068 0.0000 -181558.6584 15587.5656 546.3387 0.0000 0.0000 -161549.4675 0.0000 -161549.4675 -161549.4675 0.0000 12582.6837 -6431.9414 534946.2959 12582.6837 -6431.9414
TCL: Setting parameter constraintScaling to 2.5
TCL: Minimizing for 100 steps
ETITLE: TS BOND ANGLE DIHED IMPRP ELECT VDW BOUNDARY MISC KINETIC TOTAL TEMP POTENTIAL TOTAL3 TEMPAVG PRESSURE GPRESSURE VOLUME PRESSAVG GPRESSAVG
ENERGY: 200 239.7819 694.0979 2941.4068 0.0000 -181558.6584 15587.5656 273.1693 0.0000 0.0000 -161822.6368 0.0000 -161822.6368 -161822.6368 0.0000 13229.6787 -25663.1037 534946.2959 13229.6787 -25663.1037
ENERGY: 220 245.1699 676.0133 2932.9755 0.0000 -182071.9013 15473.5985 336.6427 0.0000 0.0000 -162407.5014 0.0000 -162407.5014 -162407.5014 0.0000 12975.4880 -6093.0858 534946.2959 12975.4880 -6093.0858
ENERGY: 240 153.6782 693.8897 2928.7722 0.0000 -182681.2856 15530.2017 346.9392 0.0000 0.0000 -163027.8047 0.0000 -163027.8047 -163027.8047 0.0000 13034.1192 -6138.2953 534946.2959 13034.1192 -6138.2953
ENERGY: 260 232.4505 704.9608 2922.3762 0.0000 -183756.1836 15757.9498 380.1425 0.0000 0.0000 -163758.3039 0.0000 -163758.3039 -163758.3039 0.0000 13013.5665 -6247.6184 534946.2959 13013.5665 -6247.6184
ENERGY: 280 202.2915 704.3636 2917.5657 0.0000 -185465.3632 16242.4411 458.8200 0.0000 0.0000 -164939.8814 0.0000 -164939.8814 -164939.8814 0.0000 13139.9406 -6354.4477 534946.2959 13139.9406 -6354.4477
ENERGY: 300 126.7065 639.4016 2916.2100 0.0000 -186080.9368 16439.4629 481.4847 0.0000 0.0000 -165477.6711 0.0000 -165477.6711 -165477.6711 0.0000 13204.3909 -6351.4718 534946.2959 13204.3909 -6351.4718
TCL: Setting parameter constraintScaling to 1.25
TCL: Minimizing for 100 steps
ETITLE: TS BOND ANGLE DIHED IMPRP ELECT VDW BOUNDARY MISC KINETIC TOTAL TEMP POTENTIAL TOTAL3 TEMPAVG PRESSURE GPRESSURE VOLUME PRESSAVG GPRESSAVG
ENERGY: 300 126.7065 639.4016 2916.2100 0.0000 -186080.9368 16439.4629 240.7423 0.0000 0.0000 -165718.4134 0.0000 -165718.4134 -165718.4134 0.0000 13652.7233 -26359.9233 534946.2959 13652.7233 -26359.9233
ENERGY: 320 148.8013 635.3318 2911.2870 0.0000 -186770.5810 16606.6995 281.8692 0.0000 0.0000 -166186.5922 0.0000 -166186.5922 -166186.5922 0.0000 13612.6250 -6005.1228 534946.2959 13612.6250 -6005.1228
ENERGY: 340 137.1260 624.6128 2909.3735 0.0000 -187200.2103 16755.3046 287.7919 0.0000 0.0000 -166486.0015 0.0000 -166486.0015 -166486.0015 0.0000 13692.8720 -5979.0689 534946.2959 13692.8720 -5979.0689
ENERGY: 360 274.5435 688.3768 2907.4271 0.0000 -188732.0429 17276.8461 344.9211 0.0000 0.0000 -167239.9282 0.0000 -167239.9282 -167239.9282 0.0000 13866.9526 -6007.5984 534946.2959 13866.9526 -6007.5984
ENERGY: 380 244.8183 654.6657 2902.0707 0.0000 -190373.2634 17921.1627 400.2693 0.0000 0.0000 -168250.2767 0.0000 -168250.2767 -168250.2767 0.0000 14009.1300 -5996.1937 534946.2959 14009.1300 -5996.1937
ENERGY: 400 134.1890 641.8647 2899.5700 0.0000 -190395.9716 17904.8013 395.8014 0.0000 0.0000 -168419.7451 0.0000 -168419.7451 -168419.7451 0.0000 14110.5622 -5940.0988 534946.2959 14110.5622 -5940.0988
TCL: Setting parameter constraintScaling to 0.625
TCL: Minimizing for 100 steps
ETITLE: TS BOND ANGLE DIHED IMPRP ELECT VDW BOUNDARY MISC KINETIC TOTAL TEMP POTENTIAL TOTAL3 TEMPAVG PRESSURE GPRESSURE VOLUME PRESSAVG GPRESSAVG
ENERGY: 400 134.1890 641.8647 2899.5700 0.0000 -190395.9715 17904.8013 197.9007 0.0000 0.0000 -168617.6458 0.0000 -168617.6458 -168617.6458 0.0000 14409.3984 -26609.1081 534946.2959 14409.3984 -26609.1081
ENERGY: 420 162.3009 637.4143 2898.2422 0.0000 -190796.9861 17995.4001 219.8153 0.0000 0.0000 -168883.8134 0.0000 -168883.8134 -168883.8134 0.0000 14271.1312 -5772.4789 534946.2959 14271.1312 -5772.4789
ENERGY: 440 151.9084 630.1174 2892.0845 0.0000 -191353.7627 18168.9759 234.4989 0.0000 0.0000 -169276.1776 0.0000 -169276.1776 -169276.1776 0.0000 14397.1007 -5740.7704 534946.2959 14397.1007 -5740.7704
ENERGY: 460 209.5629 663.1155 2891.1537 0.0000 -192081.1154 18419.1144 256.7191 0.0000 0.0000 -169641.4498 0.0000 -169641.4498 -169641.4498 0.0000 14487.8024 -5731.2912 534946.2959 14487.8024 -5731.2912
ENERGY: 480 144.7075 632.8209 2881.3961 0.0000 -193298.0648 18886.6688 290.2813 0.0000 0.0000 -170462.1902 0.0000 -170462.1902 -170462.1902 0.0000 14661.2685 -5683.5878 534946.2959 14661.2685 -5683.5878
ENERGY: 500 149.2857 644.4452 2881.7307 0.0000 -193585.9129 18996.0374 296.7914 0.0000 0.0000 -170617.6226 0.0000 -170617.6226 -170617.6226 0.0000 14765.1185 -5644.1628 534946.2959 14765.1185 -5644.1628
TCL: Setting parameter constraintScaling to 0.3125
TCL: Minimizing for 100 steps
ETITLE: TS BOND ANGLE DIHED IMPRP ELECT VDW BOUNDARY MISC KINETIC TOTAL TEMP POTENTIAL TOTAL3 TEMPAVG PRESSURE GPRESSURE VOLUME PRESSAVG GPRESSAVG
ENERGY: 500 149.2857 644.4452 2881.7307 0.0000 -193585.9129 18996.0374 148.3957 0.0000 0.0000 -170766.0183 0.0000 -170766.0183 -170766.0183 0.0000 14957.3411 -26810.2961 534946.2959 14957.3411 -26810.2961
ENERGY: 520 150.2963 641.2668 2877.0201 0.0000 -193960.5732 19123.6590 160.0577 0.0000 0.0000 -171008.2734 0.0000 -171008.2734 -171008.2734 0.0000 14972.5981 -5469.3813 534946.2959 14972.5981 -5469.3813
ENERGY: 540 226.0268 655.5180 2877.5629 0.0000 -194280.7263 19241.6337 167.4974 0.0000 0.0000 -171112.4875 0.0000 -171112.4875 -171112.4875 0.0000 14975.9854 -5479.5798 534946.2959 14975.9854 -5479.5798
ENERGY: 560 156.2175 660.6512 2873.5572 0.0000 -194801.3422 19430.2733 179.5374 0.0000 0.0000 -171501.1056 0.0000 -171501.1056 -171501.1056 0.0000 15056.6591 -5458.2730 534946.2959 15056.6591 -5458.2730
ENERGY: 580 150.9825 642.2044 2869.9373 0.0000 -195470.5678 19682.8731 194.9514 0.0000 0.0000 -171929.6190 0.0000 -171929.6190 -171929.6190 0.0000 15178.1648 -5423.3257 534946.2959 15178.1648 -5423.3257
ENERGY: 600 179.7561 651.2604 2870.3449 0.0000 -195913.2458 19850.1343 201.5101 0.0000 0.0000 -172160.2400 0.0000 -172160.2400 -172160.2400 0.0000 15223.2929 -5410.3843 534946.2959 15223.2929 -5410.3843
TCL: Setting parameter constraintScaling to 0.15625
TCL: Minimizing for 100 steps
ETITLE: TS BOND ANGLE DIHED IMPRP ELECT VDW BOUNDARY MISC KINETIC TOTAL TEMP POTENTIAL TOTAL3 TEMPAVG PRESSURE GPRESSURE VOLUME PRESSAVG GPRESSAVG
ENERGY: 600 179.7561 651.2604 2870.3449 0.0000 -195913.2458 19850.1343 100.7551 0.0000 0.0000 -172260.9951 0.0000 -172260.9951 -172260.9951 0.0000 15338.7549 -26975.2461 534946.2959 15338.7549 -26975.2461
ENERGY: 620 152.1931 640.0323 2865.8007 0.0000 -196084.9686 19908.2198 104.0219 0.0000 0.0000 -172414.7009 0.0000 -172414.7009 -172414.7009 0.0000 15380.9813 -5285.5189 534946.2959 15380.9813 -5285.5189
ENERGY: 640 180.0600 647.5013 2864.2679 0.0000 -196535.1814 20068.3363 111.1323 0.0000 0.0000 -172663.8837 0.0000 -172663.8837 -172663.8837 0.0000 15435.1774 -5280.7134 534946.2959 15435.1774 -5280.7134
ENERGY: 660 155.4051 644.0196 2859.3039 0.0000 -197268.4153 20344.4953 122.4362 0.0000 0.0000 -173142.7552 0.0000 -173142.7552 -173142.7552 0.0000 15558.3015 -5245.1566 534946.2959 15558.3015 -5245.1566
ENERGY: 680 166.4271 652.1235 2858.1192 0.0000 -197787.0827 20536.9221 128.4310 0.0000 0.0000 -173445.0597 0.0000 -173445.0597 -173445.0597 0.0000 15660.0235 -5214.4357 534946.2959 15660.0235 -5214.4357
ENERGY: 700 153.5029 642.9438 2853.1058 0.0000 -198284.2224 20731.5870 133.9059 0.0000 0.0000 -173769.1771 0.0000 -173769.1771 -173769.1771 0.0000 15747.1574 -5177.2860 534946.2959 15747.1574 -5177.2860
TCL: Setting parameter constraintScaling to 0.078125
TCL: Minimizing for 100 steps
ETITLE: TS BOND ANGLE DIHED IMPRP ELECT VDW BOUNDARY MISC KINETIC TOTAL TEMP POTENTIAL TOTAL3 TEMPAVG PRESSURE GPRESSURE VOLUME PRESSAVG GPRESSAVG
ENERGY: 700 153.5029 642.9438 2853.1058 0.0000 -198284.2224 20731.5870 66.9529 0.0000 0.0000 -173836.1300 0.0000 -173836.1300 -173836.1300 0.0000 15816.1891 -27063.5423 534946.2959 15816.1891 -27063.5423
ENERGY: 720 157.0687 641.2480 2850.3876 0.0000 -198513.7686 20812.8623 69.4256 0.0000 0.0000 -173982.7764 0.0000 -173982.7764 -173982.7764 0.0000 15841.2553 -5105.8096 534946.2959 15841.2553 -5105.8096
ENERGY: 740 163.4383 643.6948 2847.9522 0.0000 -198873.3197 20941.4142 72.8456 0.0000 0.0000 -174203.9746 0.0000 -174203.9746 -174203.9746 0.0000 15889.9854 -5097.1851 534946.2959 15889.9854 -5097.1851
ENERGY: 760 157.6263 646.2235 2843.6214 0.0000 -199461.4186 21156.3215 77.8679 0.0000 0.0000 -174579.7580 0.0000 -174579.7580 -174579.7580 0.0000 15996.8838 -5062.3255 534946.2959 15996.8838 -5062.3255
ENERGY: 780 158.8012 645.4544 2841.4358 0.0000 -199755.4333 21264.7874 80.2379 0.0000 0.0000 -174764.7165 0.0000 -174764.7165 -174764.7165 0.0000 16045.4600 -5047.2799 534946.2959 16045.4600 -5047.2799
ENERGY: 800 164.8846 657.3763 2837.2965 0.0000 -200564.2752 21566.7466 86.5498 0.0000 0.0000 -175251.4214 0.0000 -175251.4214 -175251.4214 0.0000 16214.5379 -4980.6449 534946.2959 16214.5379 -4980.6449
TCL: Setting parameter constraintScaling to 0.0390625
TCL: Minimizing for 100 steps
ETITLE: TS BOND ANGLE DIHED IMPRP ELECT VDW BOUNDARY MISC KINETIC TOTAL TEMP POTENTIAL TOTAL3 TEMPAVG PRESSURE GPRESSURE VOLUME PRESSAVG GPRESSAVG
ENERGY: 800 164.8846 657.3763 2837.2965 0.0000 -200564.2752 21566.7466 43.2749 0.0000 0.0000 -175294.6963 0.0000 -175294.6963 -175294.6963 0.0000 16254.8857 -27170.1589 534946.2959 16254.8857 -27170.1589
ENERGY: 820 171.9111 655.8381 2835.0497 0.0000 -200802.3856 21659.8589 44.7588 0.0000 0.0000 -175434.9691 0.0000 -175434.9691 -175434.9691 0.0000 16289.4135 -4931.1818 534946.2959 16289.4135 -4931.1818
ENERGY: 840 189.4717 659.4944 2837.3165 0.0000 -201172.6891 21801.3668 46.4912 0.0000 0.0000 -175638.5485 0.0000 -175638.5485 -175638.5485 0.0000 16286.3075 -4956.1920 534946.2959 16286.3075 -4956.1920
ENERGY: 860 267.5825 690.6554 2835.0687 0.0000 -201457.5519 21908.2630 47.5086 0.0000 0.0000 -175708.4737 0.0000 -175708.4737 -175708.4737 0.0000 16438.0807 -4873.0080 534946.2959 16438.0807 -4873.0080
ENERGY: 880 266.7875 698.9252 2830.7370 0.0000 -202338.0003 22281.1264 52.7485 0.0000 0.0000 -176207.6756 0.0000 -176207.6756 -176207.6756 0.0000 16540.0720 -4846.2605 534946.2959 16540.0720 -4846.2605
ENERGY: 900 172.4837 662.4275 2823.9550 0.0000 -202562.7830 22371.4625 53.5233 0.0000 0.0000 -176478.9310 0.0000 -176478.9310 -176478.9310 0.0000 16618.3186 -4803.0287 534946.2959 16618.3186 -4803.0287
TCL: Setting parameter constraintScaling to 0.01953125
TCL: Minimizing for 100 steps
ETITLE: TS BOND ANGLE DIHED IMPRP ELECT VDW BOUNDARY MISC KINETIC TOTAL TEMP POTENTIAL TOTAL3 TEMPAVG PRESSURE GPRESSURE VOLUME PRESSAVG GPRESSAVG
ENERGY: 900 172.4837 662.4275 2823.9550 0.0000 -202562.7830 22371.4625 26.7617 0.0000 0.0000 -176505.6927 0.0000 -176505.6927 -176505.6927 0.0000 16641.2870 -27262.3337 534946.2959 16641.2870 -27262.3337
ENERGY: 920 167.8312 652.7912 2824.2057 0.0000 -202758.9798 22446.0917 27.0673 0.0000 0.0000 -176640.9927 0.0000 -176640.9927 -176640.9927 0.0000 16685.1056 -4760.6924 534946.2959 16685.1056 -4760.6924
ENERGY: 940 164.0933 651.3161 2820.6128 0.0000 -203073.3413 22573.2234 28.0179 0.0000 0.0000 -176836.0777 0.0000 -176836.0777 -176836.0777 0.0000 16745.1473 -4737.1327 534946.2959 16745.1473 -4737.1327
ENERGY: 960 172.9758 661.0808 2818.8241 0.0000 -203383.9776 22708.7759 28.8127 0.0000 0.0000 -176993.5082 0.0000 -176993.5082 -176993.5082 0.0000 16820.1973 -4702.0609 534946.2959 16820.1973 -4702.0609
ENERGY: 980 183.3889 666.9221 2818.7493 0.0000 -203942.9982 22944.3685 30.5359 0.0000 0.0000 -177299.0335 0.0000 -177299.0335 -177299.0335 0.0000 16917.1907 -4662.2664 534946.2959 16917.1907 -4662.2664
ENERGY: 1000 190.0526 669.8201 2816.1212 0.0000 -204416.9844 23163.2407 31.8529 0.0000 0.0000 -177545.8968 0.0000 -177545.8968 -177545.8968 0.0000 17059.3408 -4590.7609 534946.2959 17059.3408 -4590.7609
TCL: Setting parameter constraintScaling to 0
TCL: Minimizing for 5000 steps
ETITLE: TS BOND ANGLE DIHED IMPRP ELECT VDW BOUNDARY MISC KINETIC TOTAL TEMP POTENTIAL TOTAL3 TEMPAVG PRESSURE GPRESSURE VOLUME PRESSAVG GPRESSAVG
ENERGY: 1000 190.0526 669.8201 2816.1212 0.0000 -204416.9844 23163.2407 0.0000 0.0000 0.0000 -177577.7498 0.0000 -177577.7498 -177577.7498 0.0000 17085.1138 -27262.9004 534946.2959 17085.1138 -27262.9004
ENERGY: 2000 167.6878 664.3766 2805.7596 0.0000 -214751.6898 27944.8214 0.0000 0.0000 0.0000 -183169.0444 0.0000 -183169.0444 -183169.0444 0.0000 19625.7321 -3179.2801 534946.2959 19625.7321 -3179.2801
ENERGY: 3000 179.2229 671.2659 2794.4259 0.0000 -217458.2098 28843.5887 0.0000 0.0000 0.0000 -184969.7063 0.0000 -184969.7063 -184969.7063 0.0000 20074.6222 -2733.4786 534946.2959 20074.6222 -2733.4786
ENERGY: 4000 166.5490 667.2515 2790.4543 0.0000 -218801.5573 29405.8374 0.0000 0.0000 0.0000 -185771.4650 0.0000 -185771.4650 -185771.4650 0.0000 20379.2987 -2554.4815 534946.2959 20379.2987 -2554.4815
ENERGY: 5000 166.8550 666.9559 2787.3300 0.0000 -219416.8069 29651.9573 0.0000 0.0000 0.0000 -186143.7088 0.0000 -186143.7088 -186143.7088 0.0000 20513.3761 -2476.7771 534946.2959 20513.3761 -2476.7771
ENERGY: 6000 167.2498 669.2762 2784.3869 0.0000 -219934.8185 29868.3191 0.0000 0.0000 0.0000 -186445.5864 0.0000 -186445.5864 -186445.5864 0.0000 20617.9897 -2425.8524 534946.2959 20617.9897 -2425.8524
