Info: SIMULATION PARAMETERS:
Info: TIMESTEP               1
Info: NUMBER OF STEPS        0
Info: STEPS PER CYCLE        10
Info: PERIODIC CELL BASIS 1  72.449 0 0
Info: PERIODIC CELL BASIS 2  0 93.247 0
Info: PERIODIC CELL BASIS 3  0 0 79.185
Info: PERIODIC CELL CENTER   -0.248 -0.156 -0.047
Info: WRAPPING WATERS AROUND PERIODIC BOUNDARIES ON OUTPUT.
Info: WRAPPING ALL CLUSTERS AROUND PERIODIC BOUNDARIES ON OUTPUT.
Info: FIRST LDB TIMESTEP     50
Info: LAST LDB TIMESTEP     -1
Info: HOM BACKGROUND SCALING 1
Info: PME BACKGROUND SCALING 1
Info: MIN ATOMS PER PATCH    40
Info: VELOCITY FILE          ../replicas/rep91/equilibration/eq1.vel
Info: CENTER OF MASS MOVING INITIALLY? NO
Info: DIELECTRIC             1
Info: EXCLUDE                SCALED ONE-FOUR
Info: 1-4 ELECTROSTATICS SCALED BY 0.833333
Info: MODIFIED 1-4 VDW PARAMETERS WILL BE USED
Info: DCD FILENAME           ../replicas/rep91/equilibration/eq2.dcd
Info: DCD FREQUENCY          5000
Info: DCD FIRST STEP         5000
Info: DCD FILE WILL CONTAIN UNIT CELL DATA
Info: XST FILENAME           ../replicas/rep91/equilibration/eq2.xst
Info: XST FREQUENCY          5000
Info: NO VELOCITY DCD OUTPUT
Info: NO FORCE DCD OUTPUT
Info: OUTPUT FILENAME        ../replicas/rep91/equilibration/eq2
Info: RESTART FILENAME       ../replicas/rep91/equilibration/eq2.restart
Info: RESTART FREQUENCY      5000
Info: BINARY RESTART FILES WILL BE USED
Info: SWITCHING ACTIVE
Info: SWITCHING ON           10
Info: SWITCHING OFF          12
Info: PAIRLIST DISTANCE      13.5
Info: PAIRLIST SHRINK RATE   0.01
Info: PAIRLIST GROW RATE     0.01
Info: PAIRLIST TRIGGER       0.3
Info: PAIRLISTS PER CYCLE    2
Info: PAIRLISTS ENABLED
Info: MARGIN                 0.48
Info: HYDROGEN GROUP CUTOFF  2.5
Info: PATCH DIMENSION        16.48
Info: ENERGY OUTPUT STEPS    500
Info: CROSSTERM ENERGY INCLUDED IN DIHEDRAL
Info: TIMING OUTPUT STEPS    5000
Info: PRESSURE OUTPUT STEPS  500
Info: HARMONIC CONSTRAINTS ACTIVE
Info: HARMONIC CONS EXP      2
Info: HARMONIC CONS SCALING  10
Info: LANGEVIN DYNAMICS ACTIVE
Info: LANGEVIN TEMPERATURE   300
Info: LANGEVIN USING BBK INTEGRATOR
Info: LANGEVIN DAMPING COEFFICIENT IS 5 INVERSE PS
Info: LANGEVIN DYNAMICS NOT APPLIED TO HYDROGENS
Info: BERENDSEN PRESSURE COUPLING ACTIVE
Info:     TARGET PRESSURE IS 1 BAR
Info:     COMPRESSIBILITY ESTIMATE IS 4.57e-05 BAR^(-1)
Info:     RELAXATION TIME IS 100 FS
Info:     APPLIED EVERY 2 STEPS
Info:     PRESSURE CONTROL IS GROUP-BASED
Info:       CELL FLUCTUATION IS ISOTROPIC
Info: PARTICLE MESH EWALD (PME) ACTIVE
Info: PME TOLERANCE               1e-06
Info: PME EWALD COEFFICIENT       0.257952
Info: PME INTERPOLATION ORDER     4
Info: PME GRID DIMENSIONS         80 96 80
Info: PME MAXIMUM GRID SPACING    1
Info: FULL ELECTROSTATIC EVALUATION FREQUENCY      2
Info: USING VERLET I (r-RESPA) MTS SCHEME.
Info: C1 SPLITTING OF LONG RANGE ELECTROSTATICS
Info: PLACING ATOMS IN PATCHES BY HYDROGEN GROUPS
Info: RIGID BONDS TO HYDROGEN : WATER
Info:         ERROR TOLERANCE : 1e-05
Info:          MAX ITERATIONS : 100
Info: RIGID WATER USING SETTLE ALGORITHM
Info: RANDOM NUMBER SEED     1503715791
Info: USE HYDROGEN BONDS?    NO
Info: Using AMBER format force field!
Info: AMBER PARM FILE        ../build/complex.top
Info: COORDINATE PDB         ../replicas/rep91/equilibration/eq1.coor
Info: Exclusions in PARM file will be ignored!
Info: SCNB (VDW SCALING)     2
Info: USING ARITHMETIC MEAN TO COMBINE L-J SIGMA PARAMETERS
Info: SUMMARY OF PARAMETERS:
Info: 71 BONDS
Info: 145 ANGLES
Info: 76 DIHEDRAL
Info: 0 IMPROPER
Info: 0 CROSSTERM
Info: 0 VDW
Info: 190 VDW_PAIRS
Info: 0 NBTHOLE_PAIRS
Info: STRUCTURE SUMMARY:
Info: 49394 ATOMS
Info: 49448 BONDS
Info: 8698 ANGLES
Info: 18780 DIHEDRALS
Info: 0 IMPROPERS
Info: 0 CROSSTERMS
Info: 0 EXCLUSIONS
Info: 2336 CONSTRAINTS
Info: 44667 RIGID BONDS
Info: 103515 DEGREES OF FREEDOM
Info: 17225 HYDROGEN GROUPS
Info: 4 ATOMS IN LARGEST HYDROGEN GROUP
Info: 17225 MIGRATION GROUPS
Info: 4 ATOMS IN LARGEST MIGRATION GROUP
Info: TOTAL MASS = 301478 amu
Info: TOTAL CHARGE = 1.00115e-05 e
Info: MASS DENSITY = 0.935846 g/cm^3
Info: ATOM DENSITY = 0.0923345 atoms/A^3
Info: ADDED 70656 IMPLICIT EXCLUSIONS
Info: NONBONDED TABLE R-SQUARED SPACING: 0.0625
Info: NONBONDED TABLE SIZE: 769 POINTS
Info: REMOVING COM VELOCITY 0.0180263 0.0280192 -0.0113846
TCL: Running for 5000 steps
ETITLE: TS BOND ANGLE DIHED IMPRP ELECT VDW BOUNDARY MISC KINETIC TOTAL TEMP POTENTIAL TOTAL3 TEMPAVG PRESSURE GPRESSURE VOLUME PRESSAVG GPRESSAVG
ENERGY: 0 395.8909 1229.5714 2922.6631 0.0000 -212715.2091 29626.7532 0.0000 0.0000 10009.1554 -168531.1751 97.3161 -178540.3305 -168521.4239 97.3161 -2346.8001 -2446.1621 534946.2959 -2346.8001 -2446.1621
ENERGY: 1000 1244.6222 1987.6058 3140.0623 0.0000 -193585.3402 26491.3803 744.5252 0.0000 24087.3823 -135889.7620 234.1945 -159977.1443 -135860.6605 218.8057 -58.3570 -39.6225 521952.2921 -6.4546 -6.2919
ENERGY: 2000 1427.5965 2161.9332 3144.5991 0.0000 -183968.6948 23101.4422 766.7404 0.0000 27828.0263 -125538.3572 270.5637 -153366.3835 -125497.7840 263.5376 41.4274 4.0979 516375.2414 -18.9182 -18.6235
ENERGY: 3000 1561.0668 2199.8485 3146.2366 0.0000 -179534.2619 21751.6791 784.6822 0.0000 29556.4285 -120534.3202 287.3684 -150090.7487 -120492.8274 284.1399 -67.8746 -4.9895 510072.8177 -20.7749 -20.8093
ENERGY: 4000 1554.7513 2226.8050 3116.2093 0.0000 -177445.9104 21097.8076 814.6078 0.0000 30167.4526 -118468.2769 293.3092 -148635.7294 -118426.2885 292.0459 29.8459 1.2878 507780.1300 -8.7214 -8.9753
ENERGY: 5000 1563.6443 2257.1754 3140.8891 0.0000 -176368.9512 20655.3783 804.2353 0.0000 30702.1526 -117245.4765 298.5080 -147947.6290 -117199.2942 296.8466 -53.9322 2.9852 505692.0604 -7.1433 -7.0533
TCL: Setting parameter constraintScaling to 5.0
TCL: Running for 5000 steps
ETITLE: TS BOND ANGLE DIHED IMPRP ELECT VDW BOUNDARY MISC KINETIC TOTAL TEMP POTENTIAL TOTAL3 TEMPAVG PRESSURE GPRESSURE VOLUME PRESSAVG GPRESSAVG
ENERGY: 5000 1563.6443 2257.1754 3140.8891 0.0000 -176368.9512 20655.3783 402.1176 0.0000 30700.0714 -117649.6752 298.4877 -148349.7466 -117604.0283 298.4877 -35.1308 13.9552 505692.0604 -35.1308 13.9552
ENERGY: 6000 1599.2078 2275.7788 3177.9751 0.0000 -175372.8032 20090.8739 651.6321 0.0000 30741.5854 -116835.7502 298.8914 -147577.3355 -116786.5375 297.1785 -27.7651 -7.8089 503945.0253 -2.9055 -2.2869
ENERGY: 7000 1548.7741 2303.8173 3146.7010 0.0000 -175487.8202 20326.3333 628.5764 0.0000 31020.7837 -116512.8343 301.6059 -147533.6180 -116463.3582 300.1186 -28.5727 29.4571 504184.1041 -0.9559 -0.8102
ENERGY: 8000 1596.1169 2301.0245 3179.2411 0.0000 -175509.8432 20344.8432 616.2938 0.0000 30990.6015 -116481.7222 301.3125 -147472.3237 -116432.9355 301.3046 7.3050 37.9126 502766.0302 -6.3007 -6.5621
ENERGY: 9000 1602.5881 2340.1367 3176.3717 0.0000 -175491.8493 20163.2340 622.9590 0.0000 30976.5152 -116610.0446 301.1755 -147586.5598 -116570.8636 300.4408 -26.3283 -18.2028 501417.6465 -8.1215 -8.8159
ENERGY: 10000 1623.6427 2273.7053 3173.3285 0.0000 -175551.5749 20091.9766 647.9143 0.0000 31124.7378 -116616.2697 302.6166 -147741.0075 -116563.2816 299.9385 -46.9511 -9.0381 501566.3575 -7.4733 -8.1639
TCL: Setting parameter constraintScaling to 2.5
TCL: Running for 5000 steps
ETITLE: TS BOND ANGLE DIHED IMPRP ELECT VDW BOUNDARY MISC KINETIC TOTAL TEMP POTENTIAL TOTAL3 TEMPAVG PRESSURE GPRESSURE VOLUME PRESSAVG GPRESSAVG
ENERGY: 10000 1623.6427 2273.7053 3173.3285 0.0000 -175551.5749 20091.9766 323.9572 0.0000 31122.6827 -116942.2819 302.5967 -148064.9647 -116900.0381 302.5967 -138.8328 -101.9956 501566.3575 -138.8328 -101.9956
ENERGY: 11000 1606.3924 2321.0716 3167.8989 0.0000 -175828.7925 20181.3699 522.2445 0.0000 30920.5320 -117109.2832 300.6312 -148029.8153 -117059.5609 298.8981 -96.8661 -27.2165 501212.0940 -5.2132 -4.6553
ENERGY: 12000 1617.0218 2307.3205 3161.6622 0.0000 -175504.2546 20164.1837 517.5413 0.0000 30778.6473 -116957.8778 299.2517 -147736.5251 -116917.0103 300.2869 -80.7013 -36.0022 500013.4835 1.5209 1.4778
ENERGY: 13000 1662.5307 2388.3465 3159.1329 0.0000 -176297.1903 20502.2105 522.5538 0.0000 30476.3588 -117586.0571 296.3126 -148062.4159 -117557.8796 298.4295 -146.6439 -92.2264 499071.9918 -5.8146 -5.8766
ENERGY: 14000 1608.4797 2359.2288 3247.6424 0.0000 -175758.8275 19999.5697 528.4551 0.0000 30487.7202 -117527.7318 296.4231 -148015.4520 -117476.1793 299.3358 -21.0903 -14.1610 500265.8789 -1.3524 -1.1592
ENERGY: 15000 1567.3932 2431.1135 3193.3853 0.0000 -175538.1068 20010.8576 533.1198 0.0000 30842.4003 -116959.8371 299.8716 -147802.2374 -116915.2304 299.4153 -70.3818 -30.6700 499330.7964 -12.8243 -12.6388
TCL: Setting parameter constraintScaling to 1.25
TCL: Running for 5000 steps
ETITLE: TS BOND ANGLE DIHED IMPRP ELECT VDW BOUNDARY MISC KINETIC TOTAL TEMP POTENTIAL TOTAL3 TEMPAVG PRESSURE GPRESSURE VOLUME PRESSAVG GPRESSAVG
ENERGY: 15000 1567.3932 2431.1135 3193.3853 0.0000 -175538.1068 20010.8576 266.5599 0.0000 30840.3584 -117228.4389 299.8517 -148068.7973 -117185.3172 299.8517 -75.6536 -46.1365 499330.7964 -75.6536 -46.1365
ENERGY: 16000 1592.4710 2416.0054 3202.8756 0.0000 -175273.0395 19842.3249 409.4921 0.0000 30851.1237 -116958.7467 299.9564 -147809.8704 -116904.6592 300.5319 -142.8709 -54.4414 498881.6522 -2.5613 -2.9218
ENERGY: 17000 1602.3441 2371.2321 3190.1067 0.0000 -175432.1434 20068.3756 390.5171 0.0000 30921.8060 -116887.7619 300.6436 -147809.5679 -116851.1481 299.7099 -105.2971 4.3570 500199.5711 2.8852 3.5455
ENERGY: 18000 1652.8860 2322.3156 3216.8426 0.0000 -176141.3644 20339.4899 407.1366 0.0000 30557.7472 -117644.9464 297.1040 -148202.6936 -117595.2990 299.1126 -12.7754 13.5789 498562.4682 -12.4035 -12.2019
ENERGY: 19000 1643.9045 2374.7148 3184.0603 0.0000 -176587.4774 20447.5149 418.0698 0.0000 31033.4522 -117485.7608 301.7291 -148519.2130 -117432.3606 299.7308 -30.6737 61.0003 498674.7406 7.4630 7.5810
ENERGY: 20000 1654.3564 2409.3565 3193.5296 0.0000 -175863.1824 20144.6684 401.8976 0.0000 31081.3623 -116978.0116 302.1949 -148059.3739 -116930.0951 300.1757 -6.7479 -10.8796 499183.4970 0.4531 0.4124
TCL: Setting parameter constraintScaling to 0.625
TCL: Running for 5000 steps
ETITLE: TS BOND ANGLE DIHED IMPRP ELECT VDW BOUNDARY MISC KINETIC TOTAL TEMP POTENTIAL TOTAL3 TEMPAVG PRESSURE GPRESSURE VOLUME PRESSAVG GPRESSAVG
ENERGY: 20000 1654.3564 2409.3565 3193.5296 0.0000 -175863.1824 20144.6684 200.9488 0.0000 31079.3101 -117181.0126 302.1750 -148260.3227 -117135.5036 302.1750 15.0527 17.5755 499183.4970 15.0527 17.5755
ENERGY: 21000 1750.9346 2438.0088 3213.5871 0.0000 -175956.1257 20167.8468 322.9792 0.0000 30907.6732 -117155.0961 300.5062 -148062.7693 -117103.7776 300.4066 -116.0882 -67.3053 499839.3260 -5.5420 -5.9313
ENERGY: 22000 1638.5248 2404.4701 3253.7356 0.0000 -175538.7324 19901.0700 323.8590 0.0000 30803.0834 -117213.9895 299.4893 -148017.0730 -117175.6693 300.4555 32.6416 59.6985 498868.8142 -0.1178 -0.2508
ENERGY: 23000 1626.9846 2378.7052 3193.5526 0.0000 -175483.1790 19995.9646 330.0682 0.0000 30707.7854 -117250.1182 298.5627 -147957.9036 -117206.1731 299.0001 5.6297 -4.8851 498570.2786 -2.6101 -2.5396
ENERGY: 24000 1650.4164 2327.2588 3199.4594 0.0000 -176114.7385 20234.1805 307.6156 0.0000 30733.8900 -117661.9178 298.8165 -148395.8078 -117612.2274 298.0687 12.3804 40.3515 499154.0682 -6.2519 -6.4388
ENERGY: 25000 1624.7831 2363.2128 3186.1469 0.0000 -175793.5547 20255.4102 338.8037 0.0000 30797.2359 -117227.9621 299.4324 -148025.1980 -117193.9051 298.9349 -20.7465 63.8263 499075.0761 17.0350 17.3145
TCL: Setting parameter constraintScaling to 0.3125
TCL: Running for 5000 steps
ETITLE: TS BOND ANGLE DIHED IMPRP ELECT VDW BOUNDARY MISC KINETIC TOTAL TEMP POTENTIAL TOTAL3 TEMPAVG PRESSURE GPRESSURE VOLUME PRESSAVG GPRESSAVG
ENERGY: 25000 1624.7831 2363.2128 3186.1469 0.0000 -175793.5547 20255.4102 169.4019 0.0000 30795.1730 -117399.4269 299.4124 -148194.5999 -117357.5186 299.4124 -35.3671 49.2549 499075.0761 -35.3671 49.2549
ENERGY: 26000 1648.5379 2432.9034 3217.2632 0.0000 -175953.0885 19901.5099 244.3213 0.0000 30735.6149 -117772.9380 298.8333 -148508.5528 -117725.8262 299.7389 -15.5832 -27.2202 496346.9841 -17.9922 -18.1798
ENERGY: 27000 1656.2452 2380.9743 3196.5890 0.0000 -175673.6417 20086.4527 259.8526 0.0000 30774.9579 -117318.5699 299.2158 -148093.5278 -117273.8803 299.9394 -159.7419 -43.5268 497306.0413 9.0115 8.9962
ENERGY: 28000 1650.3922 2437.0459 3257.1370 0.0000 -175735.1277 20138.8000 269.0605 0.0000 30781.9554 -117200.7367 299.2839 -147982.6920 -117163.3456 301.1994 33.7992 22.6385 498472.0793 13.4872 13.1236
ENERGY: 29000 1653.1200 2403.7058 3209.1257 0.0000 -175931.7260 20219.2747 250.8612 0.0000 31032.2232 -117163.4153 301.7171 -148195.6385 -117106.8782 300.6766 124.8673 24.5189 498543.7198 2.3697 2.1625
ENERGY: 30000 1587.0971 2367.4796 3168.8761 0.0000 -175766.6562 20085.4666 262.2923 0.0000 30954.5711 -117340.8734 300.9622 -148295.4445 -117290.3700 300.2831 19.5554 85.9752 497694.1062 -0.6568 -0.9549
TCL: Setting parameter constraintScaling to 0.15625
TCL: Running for 5000 steps
ETITLE: TS BOND ANGLE DIHED IMPRP ELECT VDW BOUNDARY MISC KINETIC TOTAL TEMP POTENTIAL TOTAL3 TEMPAVG PRESSURE GPRESSURE VOLUME PRESSAVG GPRESSAVG
ENERGY: 30000 1587.0971 2367.4796 3168.8761 0.0000 -175766.6562 20085.4666 131.1462 0.0000 30952.5309 -117474.0598 300.9423 -148426.5907 -117430.7517 300.9423 -8.5554 59.3989 497694.1062 -8.5554 59.3989
ENERGY: 31000 1603.9839 2424.6535 3207.6162 0.0000 -175645.1814 19978.6612 203.3584 0.0000 30814.3473 -117412.5609 299.5988 -148226.9082 -117369.5683 299.3600 -51.6780 13.0238 498088.3885 3.3757 3.3803
ENERGY: 32000 1602.5765 2377.8550 3234.2442 0.0000 -175980.8444 20187.6927 200.2860 0.0000 30758.0401 -117620.1498 299.0513 -148378.1900 -117576.3349 300.3683 18.6782 2.1744 498347.2539 10.3913 11.1080
ENERGY: 33000 1644.3199 2396.8140 3190.2070 0.0000 -175631.3941 20007.4143 212.0664 0.0000 30812.0406 -117368.5319 299.5764 -148180.5725 -117314.5703 299.3681 -3.5987 -33.2431 496455.7118 -14.7779 -14.7541
ENERGY: 34000 1642.1464 2373.0107 3212.6113 0.0000 -175800.6803 20207.5114 206.9270 0.0000 30921.5070 -117236.9665 300.6407 -148158.4735 -117184.4370 300.3704 165.3534 64.3186 498953.6466 14.2030 14.0345
ENERGY: 35000 1665.0251 2366.1726 3193.0931 0.0000 -176175.4651 20369.9377 227.2254 0.0000 30837.3187 -117516.6925 299.8221 -148354.0112 -117469.2215 299.7939 82.4583 81.6487 497072.2571 -17.8488 -18.4291
TCL: Setting parameter constraintScaling to 0.078125
TCL: Running for 5000 steps
ETITLE: TS BOND ANGLE DIHED IMPRP ELECT VDW BOUNDARY MISC KINETIC TOTAL TEMP POTENTIAL TOTAL3 TEMPAVG PRESSURE GPRESSURE VOLUME PRESSAVG GPRESSAVG
ENERGY: 35000 1665.0251 2366.1726 3193.0931 0.0000 -176175.4651 20369.9377 113.6127 0.0000 30835.2828 -117632.3412 299.8024 -148467.6240 -117588.6536 299.8024 52.3427 53.9369 497072.2571 52.3427 53.9369
ENERGY: 36000 1637.5592 2426.9493 3196.6571 0.0000 -175842.2971 20114.1374 149.1574 0.0000 30845.0424 -117472.7943 299.8972 -148317.8368 -117422.2796 299.7241 -109.9172 -41.8344 496635.0427 1.3333 1.3430
ENERGY: 37000 1673.1296 2416.0760 3237.7191 0.0000 -175931.7188 20130.1944 157.0341 0.0000 30507.8905 -117809.6752 296.6192 -148317.5656 -117774.6585 299.7128 -64.2052 24.3870 496741.9034 7.1268 7.5353
ENERGY: 38000 1695.1992 2430.1349 3198.3290 0.0000 -176309.1871 20028.2594 148.5534 0.0000 30944.6246 -117864.0866 300.8654 -148808.7112 -117822.4252 298.8157 -129.0455 -99.2911 496433.6240 -9.0811 -9.4916
ENERGY: 39000 1659.3607 2478.8200 3153.1864 0.0000 -175949.4099 20121.5875 141.8753 0.0000 31023.6603 -117370.9197 301.6339 -148394.5799 -117321.8175 299.6556 -84.0798 -105.8820 496249.5258 -0.0102 -0.0065
ENERGY: 40000 1603.4909 2397.1683 3195.4873 0.0000 -176088.1603 20148.4950 166.5582 0.0000 31054.0828 -117522.8780 301.9297 -148576.9608 -117475.6063 299.4291 79.7417 53.5634 496981.5047 7.7360 7.6600
TCL: Setting parameter constraintScaling to 0.0390625
TCL: Running for 5000 steps
ETITLE: TS BOND ANGLE DIHED IMPRP ELECT VDW BOUNDARY MISC KINETIC TOTAL TEMP POTENTIAL TOTAL3 TEMPAVG PRESSURE GPRESSURE VOLUME PRESSAVG GPRESSAVG
ENERGY: 40000 1603.4909 2397.1683 3195.4873 0.0000 -176088.1603 20148.4950 83.2791 0.0000 31052.0450 -117608.1949 301.9099 -148660.2399 -117566.0021 301.9099 81.2182 52.3491 496981.5047 81.2182 52.3491
ENERGY: 41000 1610.4836 2381.1590 3196.5100 0.0000 -175793.7219 20094.6919 108.6941 0.0000 30780.5727 -117621.6107 299.2704 -148402.1833 -117580.4214 300.5998 -16.6690 26.1042 497324.8499 5.0367 4.5457
ENERGY: 42000 1633.2720 2425.7486 3210.8547 0.0000 -176033.9561 20140.3440 122.1842 0.0000 30932.3780 -117569.1746 300.7464 -148501.5526 -117524.5962 299.6484 -148.0352 -59.7889 497165.6790 7.5743 7.8964
ENERGY: 43000 1605.8282 2451.8246 3217.8234 0.0000 -176000.1347 20128.4127 126.5732 0.0000 30897.3418 -117572.3308 300.4057 -148469.6726 -117529.8924 300.4698 37.7215 104.8190 496923.3649 -2.5615 -2.2860
ENERGY: 44000 1651.3334 2449.1912 3230.6261 0.0000 -176339.0862 20291.6173 125.0452 0.0000 30866.5364 -117724.7366 300.1062 -148591.2729 -117673.7305 299.3605 102.7261 53.2223 496572.6314 -6.2021 -6.3392
ENERGY: 45000 1692.3644 2379.2752 3213.5610 0.0000 -175807.3947 19955.9858 121.5962 0.0000 30829.4324 -117615.1797 299.7455 -148444.6121 -117575.1608 299.3799 -115.7068 -152.3786 497583.2272 -0.5216 -0.3652
TCL: Setting parameter constraintScaling to 0.01953125
TCL: Running for 5000 steps
ETITLE: TS BOND ANGLE DIHED IMPRP ELECT VDW BOUNDARY MISC KINETIC TOTAL TEMP POTENTIAL TOTAL3 TEMPAVG PRESSURE GPRESSURE VOLUME PRESSAVG GPRESSAVG
ENERGY: 45000 1692.3644 2379.2752 3213.5610 0.0000 -175807.3947 19955.9858 60.7981 0.0000 30827.3738 -117678.0364 299.7255 -148505.4102 -117635.1146 299.7255 -130.9077 -160.2833 497583.2272 -130.9077 -160.2833
ENERGY: 46000 1659.6886 2387.2243 3229.6015 0.0000 -175402.6439 19881.4971 74.1392 0.0000 30897.1289 -117273.3644 300.4037 -148170.4932 -117221.0370 300.7752 -10.4887 -10.6784 496388.6142 -8.7482 -8.4573
ENERGY: 47000 1615.2520 2470.4231 3174.6109 0.0000 -175687.1239 20133.8617 78.2261 0.0000 30661.1562 -117553.5938 298.1094 -148214.7500 -117514.2251 299.9670 -13.2283 25.1915 496701.9273 1.0037 1.5370
ENERGY: 48000 1607.7046 2401.0462 3193.9248 0.0000 -176072.9731 20153.6933 81.8303 0.0000 30804.0008 -117830.7732 299.4982 -148634.7740 -117792.1421 300.1358 -12.9343 12.8396 496010.1035 -0.0022 0.0096
ENERGY: 49000 1602.3815 2434.4251 3219.4189 0.0000 -175998.2222 19900.0993 83.3681 0.0000 30816.1252 -117942.4040 299.6161 -148758.5293 -117906.0131 298.4678 18.7465 -28.3847 496377.8778 -3.0430 -2.5937
ENERGY: 50000 1653.5914 2390.6530 3188.6048 0.0000 -176078.8456 20124.4788 84.7688 0.0000 30598.2189 -118038.5299 297.4974 -148636.7488 -117990.7333 298.4183 -13.1250 51.9325 495382.5925 -1.4038 -1.3614
TCL: Setting parameter constraintScaling to 0
TCL: Running for 5000 steps
ETITLE: TS BOND ANGLE DIHED IMPRP ELECT VDW BOUNDARY MISC KINETIC TOTAL TEMP POTENTIAL TOTAL3 TEMPAVG PRESSURE GPRESSURE VOLUME PRESSAVG GPRESSAVG
ENERGY: 50000 1653.5914 2390.6530 3188.6048 0.0000 -176078.8456 20124.4788 0.0000 0.0000 30596.1734 -118125.3442 297.4776 -148721.5176 -118083.8402 297.4776 -15.1981 52.8366 495382.5925 -15.1981 52.8366
ENERGY: 51000 1609.9685 2438.8756 3230.5346 0.0000 -176163.1683 20107.4909 0.0000 0.0000 31106.0366 -117670.2622 302.4348 -148776.2987 -117631.0306 299.5284 86.1092 17.2896 496441.6895 8.6083 8.5722
ENERGY: 52000 1585.3842 2447.3752 3188.6084 0.0000 -175680.2684 19885.5535 0.0000 0.0000 30978.5280 -117594.8192 301.1951 -148573.3471 -117551.8789 299.9583 -131.8082 -3.6836 495125.6635 -1.4606 -1.7168
ENERGY: 53000 1623.7707 2406.7018 3203.5990 0.0000 -175621.5218 19724.5571 0.0000 0.0000 30994.4267 -117668.4664 301.3497 -148662.8931 -117621.1632 300.2578 4.2429 -5.7671 495409.6446 4.2070 4.1403
ENERGY: 54000 1570.7862 2435.8644 3180.0197 0.0000 -176010.8965 19989.3894 0.0000 0.0000 30912.8380 -117921.9988 300.5564 -148834.8368 -117874.5748 299.5125 -51.2517 -64.5885 495799.6852 0.7055 0.2346
ENERGY: 55000 1669.2644 2400.7906 3187.0447 0.0000 -176296.3439 20191.3831 0.0000 0.0000 30702.4484 -118145.4127 298.5108 -148847.8611 -118101.5915 298.9762 -28.5309 -25.3101 496406.5123 -0.6706 -0.6708
