Info: SIMULATION PARAMETERS:
Info: TIMESTEP               1
Info: NUMBER OF STEPS        0
Info: STEPS PER CYCLE        10
Info: PERIODIC CELL BASIS 1  72.449 0 0
Info: PERIODIC CELL BASIS 2  0 93.247 0
Info: PERIODIC CELL BASIS 3  0 0 79.185
Info: PERIODIC CELL CENTER   -0.248 -0.156 -0.047
Info: WRAPPING WATERS AROUND PERIODIC BOUNDARIES ON OUTPUT.
Info: WRAPPING ALL CLUSTERS AROUND PERIODIC BOUNDARIES ON OUTPUT.
Info: FIRST LDB TIMESTEP     50
Info: LAST LDB TIMESTEP     -1
Info: HOM BACKGROUND SCALING 1
Info: PME BACKGROUND SCALING 1
Info: MIN ATOMS PER PATCH    40
Info: VELOCITY FILE          ../replicas/rep92/equilibration/eq1.vel
Info: CENTER OF MASS MOVING INITIALLY? NO
Info: DIELECTRIC             1
Info: EXCLUDE                SCALED ONE-FOUR
Info: 1-4 ELECTROSTATICS SCALED BY 0.833333
Info: MODIFIED 1-4 VDW PARAMETERS WILL BE USED
Info: DCD FILENAME           ../replicas/rep92/equilibration/eq2.dcd
Info: DCD FREQUENCY          5000
Info: DCD FIRST STEP         5000
Info: DCD FILE WILL CONTAIN UNIT CELL DATA
Info: XST FILENAME           ../replicas/rep92/equilibration/eq2.xst
Info: XST FREQUENCY          5000
Info: NO VELOCITY DCD OUTPUT
Info: NO FORCE DCD OUTPUT
Info: OUTPUT FILENAME        ../replicas/rep92/equilibration/eq2
Info: RESTART FILENAME       ../replicas/rep92/equilibration/eq2.restart
Info: RESTART FREQUENCY      5000
Info: BINARY RESTART FILES WILL BE USED
Info: SWITCHING ACTIVE
Info: SWITCHING ON           10
Info: SWITCHING OFF          12
Info: PAIRLIST DISTANCE      13.5
Info: PAIRLIST SHRINK RATE   0.01
Info: PAIRLIST GROW RATE     0.01
Info: PAIRLIST TRIGGER       0.3
Info: PAIRLISTS PER CYCLE    2
Info: PAIRLISTS ENABLED
Info: MARGIN                 0.48
Info: HYDROGEN GROUP CUTOFF  2.5
Info: PATCH DIMENSION        16.48
Info: ENERGY OUTPUT STEPS    500
Info: CROSSTERM ENERGY INCLUDED IN DIHEDRAL
Info: TIMING OUTPUT STEPS    5000
Info: PRESSURE OUTPUT STEPS  500
Info: HARMONIC CONSTRAINTS ACTIVE
Info: HARMONIC CONS EXP      2
Info: HARMONIC CONS SCALING  10
Info: LANGEVIN DYNAMICS ACTIVE
Info: LANGEVIN TEMPERATURE   300
Info: LANGEVIN USING BBK INTEGRATOR
Info: LANGEVIN DAMPING COEFFICIENT IS 5 INVERSE PS
Info: LANGEVIN DYNAMICS NOT APPLIED TO HYDROGENS
Info: BERENDSEN PRESSURE COUPLING ACTIVE
Info:     TARGET PRESSURE IS 1 BAR
Info:     COMPRESSIBILITY ESTIMATE IS 4.57e-05 BAR^(-1)
Info:     RELAXATION TIME IS 100 FS
Info:     APPLIED EVERY 2 STEPS
Info:     PRESSURE CONTROL IS GROUP-BASED
Info:       CELL FLUCTUATION IS ISOTROPIC
Info: PARTICLE MESH EWALD (PME) ACTIVE
Info: PME TOLERANCE               1e-06
Info: PME EWALD COEFFICIENT       0.257952
Info: PME INTERPOLATION ORDER     4
Info: PME GRID DIMENSIONS         80 96 80
Info: PME MAXIMUM GRID SPACING    1
Info: FULL ELECTROSTATIC EVALUATION FREQUENCY      2
Info: USING VERLET I (r-RESPA) MTS SCHEME.
Info: C1 SPLITTING OF LONG RANGE ELECTROSTATICS
Info: PLACING ATOMS IN PATCHES BY HYDROGEN GROUPS
Info: RIGID BONDS TO HYDROGEN : WATER
Info:         ERROR TOLERANCE : 1e-05
Info:          MAX ITERATIONS : 100
Info: RIGID WATER USING SETTLE ALGORITHM
Info: RANDOM NUMBER SEED     1503701735
Info: USE HYDROGEN BONDS?    NO
Info: Using AMBER format force field!
Info: AMBER PARM FILE        ../build/complex.top
Info: COORDINATE PDB         ../replicas/rep92/equilibration/eq1.coor
Info: Exclusions in PARM file will be ignored!
Info: SCNB (VDW SCALING)     2
Info: USING ARITHMETIC MEAN TO COMBINE L-J SIGMA PARAMETERS
Info: SUMMARY OF PARAMETERS:
Info: 71 BONDS
Info: 145 ANGLES
Info:   145 HARMONIC
Info:   0 COSINE-BASED
Info: 76 DIHEDRAL
Info: 0 IMPROPER
Info: 0 CROSSTERM
Info: 0 VDW
Info: 190 VDW_PAIRS
Info: 0 NBTHOLE_PAIRS
Info: STRUCTURE SUMMARY:
Info: 49394 ATOMS
Info: 49448 BONDS
Info: 8698 ANGLES
Info: 18780 DIHEDRALS
Info: 0 IMPROPERS
Info: 0 CROSSTERMS
Info: 0 EXCLUSIONS
Info: 2336 CONSTRAINTS
Info: 44667 RIGID BONDS
Info: 103515 DEGREES OF FREEDOM
Info: 17225 HYDROGEN GROUPS
Info: 4 ATOMS IN LARGEST HYDROGEN GROUP
Info: 17225 MIGRATION GROUPS
Info: 4 ATOMS IN LARGEST MIGRATION GROUP
Info: TOTAL MASS = 301478 amu
Info: TOTAL CHARGE = 1.00115e-05 e
Info: MASS DENSITY = 0.935846 g/cm^3
Info: ATOM DENSITY = 0.0923345 atoms/A^3
Info: ADDED 70656 IMPLICIT EXCLUSIONS
Info: NONBONDED TABLE R-SQUARED SPACING: 0.0625
Info: NONBONDED TABLE SIZE: 769 POINTS
Info: REMOVING COM VELOCITY -0.011586 0.0397143 -0.00668971
TCL: Running for 5000 steps
ETITLE: TS BOND ANGLE DIHED IMPRP ELECT VDW BOUNDARY MISC KINETIC TOTAL TEMP POTENTIAL TOTAL3 TEMPAVG PRESSURE GPRESSURE VOLUME PRESSAVG GPRESSAVG
ENERGY: 0 396.0088 1220.6363 2920.0449 0.0000 -212415.5880 29252.5859 0.0000 0.0000 10022.4090 -168603.9031 97.4449 -178626.3122 -168594.2302 97.4449 -2545.7213 -2643.7858 534946.2959 -2545.7213 -2643.7858
ENERGY: 1000 1234.1853 1974.3756 3140.0128 0.0000 -193557.0456 26497.2236 796.2800 0.0000 24318.3493 -135596.6190 236.4401 -159914.9684 -135562.9931 218.9150 -10.7504 -18.3689 522688.7473 -13.7279 -13.4219
ENERGY: 2000 1465.5271 2174.0422 3135.0338 0.0000 -184319.6270 23428.8164 774.8912 0.0000 28035.0931 -125306.2232 272.5769 -153341.3163 -125266.4779 264.9213 -14.5444 3.6058 517298.2577 -26.2919 -26.4023
ENERGY: 3000 1510.2902 2139.3445 3150.4856 0.0000 -179071.6319 21610.7617 814.3691 0.0000 29301.1877 -120545.1931 284.8868 -149846.3808 -120503.0412 284.0833 -45.8890 -43.0651 511096.3732 -18.1712 -17.9296
ENERGY: 4000 1580.3355 2282.0990 3157.5490 0.0000 -177073.9249 20926.7066 787.9980 0.0000 30185.7254 -118153.5115 293.4869 -148339.2369 -118106.0853 293.3202 -59.9304 -3.5159 508515.5964 0.9793 1.2636
ENERGY: 5000 1488.8975 2274.0860 3158.6005 0.0000 -176216.9882 20577.1945 816.8362 0.0000 30550.9139 -117350.4595 297.0375 -147901.3735 -117313.3404 297.4436 -79.7857 7.7821 506357.7808 -4.2234 -4.5611
TCL: Setting parameter constraintScaling to 5.0
TCL: Running for 5000 steps
ETITLE: TS BOND ANGLE DIHED IMPRP ELECT VDW BOUNDARY MISC KINETIC TOTAL TEMP POTENTIAL TOTAL3 TEMPAVG PRESSURE GPRESSURE VOLUME PRESSAVG GPRESSAVG
ENERGY: 5000 1488.8975 2274.0860 3158.6005 0.0000 -176216.9882 20577.1945 408.4181 0.0000 30548.8560 -117760.9356 297.0175 -148309.7916 -117713.1538 297.0175 -104.7091 -14.5192 506357.7808 -104.7091 -14.5192
ENERGY: 6000 1569.8567 2349.8299 3156.7214 0.0000 -175705.8136 20209.4134 635.1879 0.0000 30749.7859 -117035.0183 298.9711 -147784.8042 -116988.9981 298.9438 -114.5029 -80.2237 505542.7472 -5.3435 -5.9951
ENERGY: 7000 1628.1594 2360.6360 3162.3114 0.0000 -175559.2747 20105.5533 673.9729 0.0000 30996.7199 -116631.9218 301.3720 -147628.6417 -116569.1792 298.4177 0.8087 22.8714 503016.2742 -2.1718 -2.5160
ENERGY: 8000 1625.5308 2265.7245 3168.9089 0.0000 -175145.0688 19766.1131 621.4796 0.0000 30845.7394 -116851.5725 299.9040 -147697.3119 -116804.4798 299.7211 -8.4354 -0.8364 502824.3461 1.4599 1.2755
ENERGY: 9000 1585.0681 2315.6709 3148.5933 0.0000 -175570.1567 20052.2826 660.6476 0.0000 30734.9304 -117072.9639 298.8267 -147807.8942 -117032.8544 297.8267 49.8418 29.8892 501671.5933 -14.7734 -14.8753
ENERGY: 10000 1618.3635 2299.4981 3148.7239 0.0000 -175490.8244 20058.4976 671.0911 0.0000 30783.4889 -116911.1614 299.2988 -147694.6503 -116863.0075 299.0946 153.9191 55.9384 501248.4940 3.7974 3.8554
TCL: Setting parameter constraintScaling to 2.5
TCL: Running for 5000 steps
ETITLE: TS BOND ANGLE DIHED IMPRP ELECT VDW BOUNDARY MISC KINETIC TOTAL TEMP POTENTIAL TOTAL3 TEMPAVG PRESSURE GPRESSURE VOLUME PRESSAVG GPRESSAVG
ENERGY: 10000 1618.3635 2299.4981 3148.7239 0.0000 -175490.8244 20058.4976 335.5455 0.0000 30781.4508 -117248.7449 299.2790 -148030.1958 -117204.7734 299.2790 66.2754 -26.3403 501248.4940 66.2754 -26.3403
ENERGY: 11000 1648.3901 2352.3641 3140.9103 0.0000 -175786.0620 20343.0547 492.8256 0.0000 30564.9222 -117243.5951 297.1737 -147808.5172 -117198.0098 298.5654 -59.6740 25.3194 500845.2064 -6.2812 -6.5246
ENERGY: 12000 1604.0531 2276.1877 3175.7695 0.0000 -175688.5031 20127.3135 508.3316 0.0000 30969.9032 -117026.9444 301.1112 -147996.8477 -116971.0622 299.2919 23.4674 24.2377 501055.3858 -0.3504 -0.5234
ENERGY: 13000 1670.9776 2415.1746 3139.0601 0.0000 -175843.6632 20259.6619 475.8921 0.0000 31024.4168 -116858.4802 301.6412 -147882.8970 -116812.9816 299.9827 -72.7899 32.8702 501833.4226 -2.4513 -2.0356
ENERGY: 14000 1594.9233 2388.0341 3157.9892 0.0000 -175572.4138 20101.3734 516.9346 0.0000 30917.7842 -116895.3750 300.6045 -147813.1592 -116845.7506 300.8136 -86.5644 -17.2738 501482.0540 -2.1972 -1.7849
ENERGY: 15000 1609.2563 2399.2391 3142.4759 0.0000 -175060.6868 19744.4655 513.2826 0.0000 30873.1966 -116778.7708 300.1710 -147651.9674 -116728.6929 300.1835 -13.0681 -26.3758 501793.5566 5.0519 4.6331
TCL: Setting parameter constraintScaling to 1.25
TCL: Running for 5000 steps
ETITLE: TS BOND ANGLE DIHED IMPRP ELECT VDW BOUNDARY MISC KINETIC TOTAL TEMP POTENTIAL TOTAL3 TEMPAVG PRESSURE GPRESSURE VOLUME PRESSAVG GPRESSAVG
ENERGY: 15000 1609.2563 2399.2391 3142.4759 0.0000 -175060.6868 19744.4655 256.6413 0.0000 30871.1316 -117037.4770 300.1509 -147908.6087 -116994.2174 300.1509 -129.0617 -138.8067 501793.5566 -129.0617 -138.8067
ENERGY: 16000 1632.1090 2446.9857 3179.8984 0.0000 -175767.9245 20193.6056 417.0348 0.0000 30912.7974 -116985.4936 300.5560 -147898.2910 -116932.4686 300.6901 -36.5743 7.1192 499269.5206 -8.0845 -8.2157
ENERGY: 17000 1655.3086 2372.8474 3166.8337 0.0000 -175967.5558 20374.3999 396.5135 0.0000 30589.2370 -117412.4157 297.4101 -148001.6527 -117373.9799 299.4833 -136.5040 -30.2506 500383.3941 8.1301 8.1475
ENERGY: 18000 1686.5489 2297.8217 3217.4108 0.0000 -176053.2499 20269.6365 408.8611 0.0000 30940.8737 -117232.0971 300.8290 -148172.9707 -117188.9054 299.2409 -22.1984 -31.7779 498553.0492 -10.7936 -10.8843
ENERGY: 19000 1621.7261 2395.0200 3170.2958 0.0000 -175661.3702 19786.9233 388.5667 0.0000 30676.2996 -117622.5387 298.2566 -148298.8383 -117574.1861 298.1548 -100.2081 -36.2467 498385.3856 -3.3348 -3.8862
ENERGY: 20000 1660.0370 2384.9506 3185.5886 0.0000 -175858.2943 20211.7875 413.6968 0.0000 30824.9593 -117177.2745 299.7020 -148002.2339 -117134.9075 299.0634 -171.2081 -21.6763 497684.0866 -0.1093 -0.4618
TCL: Setting parameter constraintScaling to 0.625
TCL: Running for 5000 steps
ETITLE: TS BOND ANGLE DIHED IMPRP ELECT VDW BOUNDARY MISC KINETIC TOTAL TEMP POTENTIAL TOTAL3 TEMPAVG PRESSURE GPRESSURE VOLUME PRESSAVG GPRESSAVG
ENERGY: 20000 1660.0370 2384.9506 3185.5886 0.0000 -175858.2943 20211.7875 206.8484 0.0000 30822.8930 -117386.1892 299.6819 -148209.0822 -117344.0187 299.6819 -136.5129 7.3266 497684.0866 -136.5129 7.3266
ENERGY: 21000 1623.0137 2418.5852 3195.3867 0.0000 -175772.3742 20067.3539 324.7760 0.0000 30756.1628 -117387.0959 299.0331 -148143.2587 -117348.1795 300.4361 6.3476 -10.4384 498274.7312 9.2192 9.2688
ENERGY: 22000 1595.8896 2400.5441 3226.6377 0.0000 -175900.5940 20130.3454 312.3103 0.0000 30516.3787 -117718.4881 296.7017 -148234.8668 -117680.3970 298.5301 -6.6718 13.1757 497765.2819 -6.1348 -6.0433
ENERGY: 23000 1598.1659 2350.6835 3187.8511 0.0000 -175911.0881 20070.7234 328.1696 0.0000 30723.7892 -117651.7054 298.7183 -148375.4946 -117611.2370 299.0227 45.5557 41.5282 498469.8144 6.1073 6.2081
ENERGY: 24000 1585.6891 2385.8833 3206.8112 0.0000 -176158.0263 20323.4336 313.5327 0.0000 30663.2714 -117679.4051 298.1299 -148342.6764 -117632.3779 299.2849 26.8304 19.1300 497188.7956 -4.5939 -5.0703
ENERGY: 25000 1589.6302 2406.5979 3171.1311 0.0000 -175893.4590 20088.6598 316.2358 0.0000 30685.2542 -117635.9500 298.3437 -148321.2042 -117605.2242 299.8430 55.0963 18.3537 498288.0636 -5.1005 -5.1324
TCL: Setting parameter constraintScaling to 0.3125
TCL: Running for 5000 steps
ETITLE: TS BOND ANGLE DIHED IMPRP ELECT VDW BOUNDARY MISC KINETIC TOTAL TEMP POTENTIAL TOTAL3 TEMPAVG PRESSURE GPRESSURE VOLUME PRESSAVG GPRESSAVG
ENERGY: 25000 1589.6302 2406.5979 3171.1311 0.0000 -175893.4590 20088.6598 158.1179 0.0000 30683.2035 -117796.1185 298.3237 -148479.3221 -117748.9322 298.3237 0.2519 -30.8958 498288.0636 0.2519 -30.8958
ENERGY: 26000 1593.7449 2385.6312 3194.6422 0.0000 -176176.7221 20181.0870 251.1283 0.0000 30633.0552 -117937.4333 297.8362 -148570.4884 -117889.2226 298.2708 55.5002 81.0158 497578.4443 9.2119 9.2357
ENERGY: 27000 1652.9538 2403.6973 3204.3181 0.0000 -176000.9722 20249.7642 255.4333 0.0000 30866.0805 -117368.7250 300.1018 -148234.8055 -117325.3793 299.8436 18.7247 57.0811 498307.5716 8.3033 8.0986
ENERGY: 28000 1610.3196 2354.9714 3214.3746 0.0000 -175955.6301 19765.2185 256.8833 0.0000 30600.7385 -118153.1243 297.5219 -148753.8627 -118111.1140 297.6215 -50.2520 -14.5910 498236.4869 -11.4635 -11.8148
ENERGY: 29000 1586.2507 2429.2433 3179.0100 0.0000 -176180.4394 19998.2111 265.8841 0.0000 30897.6750 -117824.1652 300.4090 -148721.8402 -117780.5085 298.5447 -16.0319 -9.5812 496523.8515 1.7295 1.5113
ENERGY: 30000 1602.6256 2375.6348 3213.5859 0.0000 -176291.4035 20196.6894 274.9812 0.0000 30821.5573 -117806.3293 299.6689 -148627.8866 -117759.9598 298.9180 -16.1364 52.0331 496901.8839 1.0682 0.9308
TCL: Setting parameter constraintScaling to 0.15625
TCL: Running for 5000 steps
ETITLE: TS BOND ANGLE DIHED IMPRP ELECT VDW BOUNDARY MISC KINETIC TOTAL TEMP POTENTIAL TOTAL3 TEMPAVG PRESSURE GPRESSURE VOLUME PRESSAVG GPRESSAVG
ENERGY: 30000 1602.6256 2375.6348 3213.5859 0.0000 -176291.4035 20196.6894 137.4906 0.0000 30819.5155 -117945.8617 299.6490 -148765.3772 -117901.7517 299.6490 -68.0293 3.0798 496901.8839 -68.0293 3.0798
ENERGY: 31000 1691.7488 2404.3634 3199.0954 0.0000 -176077.2763 20188.5316 193.6772 0.0000 30670.3827 -117729.4772 298.1991 -148399.8598 -117683.3251 298.1653 5.4263 -16.2646 497300.3003 14.0658 13.4928
ENERGY: 32000 1628.5048 2368.7892 3177.4297 0.0000 -175855.9082 20180.3771 190.3421 0.0000 30538.2194 -117772.2459 296.9141 -148310.4653 -117731.3717 297.8323 72.2880 117.8782 498804.5336 5.0519 5.7832
ENERGY: 33000 1623.2479 2394.1528 3222.4969 0.0000 -176021.2027 20213.4048 193.0733 0.0000 30928.4294 -117446.3975 300.7080 -148374.8269 -117398.3596 298.8179 138.6508 108.2149 497746.8427 9.2757 9.6952
ENERGY: 34000 1629.2766 2357.0610 3197.6037 0.0000 -176181.2766 20016.3275 223.6733 0.0000 30852.1811 -117905.1532 299.9666 -148757.3343 -117862.6312 300.3183 -147.6069 -72.8671 497753.5247 -9.3733 -9.0547
ENERGY: 35000 1637.6351 2459.1284 3206.6535 0.0000 -176041.3997 20078.4391 208.1021 0.0000 30777.5395 -117673.9020 299.2409 -148451.4415 -117644.4379 299.5533 -46.3577 3.6633 497952.6334 8.5670 8.1541
TCL: Setting parameter constraintScaling to 0.078125
TCL: Running for 5000 steps
ETITLE: TS BOND ANGLE DIHED IMPRP ELECT VDW BOUNDARY MISC KINETIC TOTAL TEMP POTENTIAL TOTAL3 TEMPAVG PRESSURE GPRESSURE VOLUME PRESSAVG GPRESSAVG
ENERGY: 35000 1637.6351 2459.1284 3206.6535 0.0000 -176041.3997 20078.4391 104.0510 0.0000 30775.5019 -117779.9907 299.2211 -148555.4925 -117737.4811 299.2211 -75.5195 -25.1911 497952.6334 -75.5195 -25.1911
ENERGY: 36000 1638.0218 2409.4123 3194.8096 0.0000 -175705.7407 19821.9513 156.9356 0.0000 30886.0958 -117598.5143 300.2964 -148484.6101 -117548.0367 299.5382 -124.5593 -111.5102 497248.9755 -5.8776 -6.4424
ENERGY: 37000 1574.1225 2399.3738 3230.6229 0.0000 -175126.5150 19765.1318 150.8772 0.0000 30757.4218 -117248.9650 299.0453 -148006.3868 -117201.1069 300.4980 -28.0876 43.5999 497712.0845 11.7526 11.1944
ENERGY: 38000 1621.4383 2494.6373 3210.7349 0.0000 -175797.9481 19992.7815 167.1642 0.0000 31094.4158 -117216.7761 302.3218 -148311.1919 -117165.8194 300.3572 92.2412 92.7738 495649.1995 -15.8316 -16.0760
ENERGY: 39000 1616.0168 2438.7903 3214.7403 0.0000 -175648.5656 19885.3576 161.9138 0.0000 30868.5592 -117463.1876 300.1259 -148331.7468 -117429.4050 300.6992 -128.0795 -72.6671 496385.7399 4.2290 3.6981
ENERGY: 40000 1590.3361 2419.0300 3237.9842 0.0000 -175902.4514 19977.6616 171.3370 0.0000 30848.5166 -117657.5859 299.9310 -148506.1025 -117605.4716 298.8654 6.4429 2.2519 496773.2698 1.6952 1.6821
TCL: Setting parameter constraintScaling to 0.0390625
TCL: Running for 5000 steps
ETITLE: TS BOND ANGLE DIHED IMPRP ELECT VDW BOUNDARY MISC KINETIC TOTAL TEMP POTENTIAL TOTAL3 TEMPAVG PRESSURE GPRESSURE VOLUME PRESSAVG GPRESSAVG
ENERGY: 40000 1590.3361 2419.0300 3237.9842 0.0000 -175902.4514 19977.6616 85.6685 0.0000 30846.4346 -117745.3364 299.9108 -148591.7710 -117703.1926 299.9108 -37.3737 -32.0467 496773.2698 -37.3737 -32.0467
ENERGY: 41000 1601.7589 2407.6840 3180.8630 0.0000 -175697.2648 19876.0441 120.2607 0.0000 30723.8156 -117786.8385 298.7186 -148510.6541 -117736.5447 298.8479 -91.1969 -41.7805 496691.6995 11.3829 11.7365
ENERGY: 42000 1642.5817 2452.8031 3225.1576 0.0000 -176158.1547 20150.7884 123.6235 0.0000 30785.1991 -117778.0014 299.3154 -148563.2005 -117734.7358 299.1996 -93.5880 20.1143 496727.2514 4.0990 4.0026
ENERGY: 43000 1718.1490 2414.4384 3205.6218 0.0000 -176410.3772 20243.4083 133.0441 0.0000 30933.6507 -117762.0649 300.7588 -148695.7157 -117719.6210 299.4069 -5.1201 -1.0998 497848.0313 5.2040 5.2617
ENERGY: 44000 1657.5476 2445.0956 3163.3392 0.0000 -176253.8124 20168.1587 138.8410 0.0000 30814.0317 -117866.7987 299.5957 -148680.8304 -117830.4751 299.7465 -154.9442 -38.4315 497693.2125 -2.8726 -2.9577
ENERGY: 45000 1627.1319 2382.1571 3195.8088 0.0000 -176428.0489 20168.0118 134.2485 0.0000 30928.3998 -117992.2909 300.7077 -148920.6907 -117945.0075 298.3606 -135.5709 -76.3196 496759.0863 -9.4566 -8.9378
TCL: Setting parameter constraintScaling to 0.01953125
TCL: Running for 5000 steps
ETITLE: TS BOND ANGLE DIHED IMPRP ELECT VDW BOUNDARY MISC KINETIC TOTAL TEMP POTENTIAL TOTAL3 TEMPAVG PRESSURE GPRESSURE VOLUME PRESSAVG GPRESSAVG
ENERGY: 45000 1627.1319 2382.1571 3195.8088 0.0000 -176428.0489 20168.0118 67.1242 0.0000 30926.3274 -118061.4876 300.6875 -148987.8150 -118018.8267 300.6875 -149.3931 -76.7763 496759.0863 -149.3931 -76.7763
ENERGY: 46000 1630.5746 2425.4384 3215.7738 0.0000 -175978.4849 20192.6239 73.8010 0.0000 30633.7652 -117806.5080 297.8431 -148440.2732 -117760.7924 298.8512 54.4776 50.9586 495301.4069 -3.7962 -3.9605
ENERGY: 47000 1640.6896 2423.9554 3188.4681 0.0000 -175740.8785 19996.6987 84.2910 0.0000 30902.4787 -117504.2970 300.4557 -148406.7757 -117456.8758 299.7391 -75.7726 -50.4277 495970.6223 -0.2915 -0.5184
ENERGY: 48000 1633.3335 2429.2963 3208.0335 0.0000 -175933.5696 20033.9586 85.0283 0.0000 30834.1939 -117709.7256 299.7918 -148543.9195 -117670.4627 299.4038 -26.9996 -96.5842 495894.4192 4.7234 4.4052
ENERGY: 49000 1627.0673 2410.6243 3187.5647 0.0000 -176091.2314 20062.7707 94.1733 0.0000 30812.4097 -117896.6214 299.5800 -148709.0311 -117847.0474 300.1013 101.3959 35.4215 496331.7303 4.6927 4.3109
ENERGY: 50000 1653.2934 2375.8292 3152.4160 0.0000 -175643.2298 19844.8067 102.5083 0.0000 30571.6395 -117942.7366 297.2390 -148514.3761 -117898.5819 299.2942 -99.8393 -99.6375 496392.8515 -2.1598 -2.1630
TCL: Setting parameter constraintScaling to 0
TCL: Running for 5000 steps
ETITLE: TS BOND ANGLE DIHED IMPRP ELECT VDW BOUNDARY MISC KINETIC TOTAL TEMP POTENTIAL TOTAL3 TEMPAVG PRESSURE GPRESSURE VOLUME PRESSAVG GPRESSAVG
ENERGY: 50000 1653.2934 2375.8292 3152.4160 0.0000 -175643.2298 19844.8067 0.0000 0.0000 30569.6066 -118047.2777 297.2193 -148616.8844 -118004.1568 297.2193 -106.2827 -99.9899 496392.8515 -106.2827 -99.9899
ENERGY: 51000 1629.7622 2477.4741 3204.2864 0.0000 -175570.3790 19905.2077 0.0000 0.0000 31027.8864 -117325.7623 301.6750 -148353.6486 -117282.6462 300.5444 -51.2068 21.0856 498005.5418 1.6235 2.2300
ENERGY: 52000 1596.6795 2454.0619 3188.4755 0.0000 -175681.1162 19908.2046 0.0000 0.0000 30911.1336 -117622.5611 300.5398 -148533.6947 -117577.0452 300.5469 -167.5588 -49.8867 497079.3028 -4.8818 -5.2465
ENERGY: 53000 1670.4618 2481.7413 3143.0906 0.0000 -176123.5556 20144.8177 0.0000 0.0000 31022.3057 -117661.1385 301.6207 -148683.4442 -117607.8911 300.3322 62.3254 46.6610 497387.6174 14.9195 15.4325
ENERGY: 54000 1648.7652 2409.2606 3195.7472 0.0000 -175910.9289 19932.7072 0.0000 0.0000 30878.2214 -117846.2273 300.2198 -148724.4486 -117809.7292 299.6566 -5.3152 -48.3080 496390.9657 0.3915 -0.3643
ENERGY: 55000 1624.4665 2441.2110 3224.2340 0.0000 -176089.2060 20049.6036 0.0000 0.0000 30825.9592 -117923.7317 299.7117 -148749.6909 -117889.0461 299.7602 -34.6525 -32.7691 495717.8233 9.4123 9.1472
