Info: SIMULATION PARAMETERS:
Info: TIMESTEP               1
Info: NUMBER OF STEPS        0
Info: STEPS PER CYCLE        10
Info: PERIODIC CELL BASIS 1  72.449 0 0
Info: PERIODIC CELL BASIS 2  0 93.247 0
Info: PERIODIC CELL BASIS 3  0 0 79.185
Info: PERIODIC CELL CENTER   -0.248 -0.156 -0.047
Info: WRAPPING WATERS AROUND PERIODIC BOUNDARIES ON OUTPUT.
Info: WRAPPING ALL CLUSTERS AROUND PERIODIC BOUNDARIES ON OUTPUT.
Info: FIRST LDB TIMESTEP     50
Info: LAST LDB TIMESTEP     -1
Info: HOM BACKGROUND SCALING 1
Info: PME BACKGROUND SCALING 1
Info: MIN ATOMS PER PATCH    40
Info: VELOCITY FILE          ../replicas/rep35/equilibration/eq1.vel
Info: CENTER OF MASS MOVING INITIALLY? NO
Info: DIELECTRIC             1
Info: EXCLUDE                SCALED ONE-FOUR
Info: 1-4 ELECTROSTATICS SCALED BY 0.833333
Info: MODIFIED 1-4 VDW PARAMETERS WILL BE USED
Info: DCD FILENAME           ../replicas/rep35/equilibration/eq2.dcd
Info: DCD FREQUENCY          5000
Info: DCD FIRST STEP         5000
Info: DCD FILE WILL CONTAIN UNIT CELL DATA
Info: XST FILENAME           ../replicas/rep35/equilibration/eq2.xst
Info: XST FREQUENCY          5000
Info: NO VELOCITY DCD OUTPUT
Info: NO FORCE DCD OUTPUT
Info: OUTPUT FILENAME        ../replicas/rep35/equilibration/eq2
Info: RESTART FILENAME       ../replicas/rep35/equilibration/eq2.restart
Info: RESTART FREQUENCY      5000
Info: BINARY RESTART FILES WILL BE USED
Info: SWITCHING ACTIVE
Info: SWITCHING ON           10
Info: SWITCHING OFF          12
Info: PAIRLIST DISTANCE      13.5
Info: PAIRLIST SHRINK RATE   0.01
Info: PAIRLIST GROW RATE     0.01
Info: PAIRLIST TRIGGER       0.3
Info: PAIRLISTS PER CYCLE    2
Info: PAIRLISTS ENABLED
Info: MARGIN                 0.48
Info: HYDROGEN GROUP CUTOFF  2.5
Info: PATCH DIMENSION        16.48
Info: ENERGY OUTPUT STEPS    500
Info: CROSSTERM ENERGY INCLUDED IN DIHEDRAL
Info: TIMING OUTPUT STEPS    5000
Info: PRESSURE OUTPUT STEPS  500
Info: HARMONIC CONSTRAINTS ACTIVE
Info: HARMONIC CONS EXP      2
Info: HARMONIC CONS SCALING  10
Info: LANGEVIN DYNAMICS ACTIVE
Info: LANGEVIN TEMPERATURE   300
Info: LANGEVIN USING BBK INTEGRATOR
Info: LANGEVIN DAMPING COEFFICIENT IS 5 INVERSE PS
Info: LANGEVIN DYNAMICS NOT APPLIED TO HYDROGENS
Info: BERENDSEN PRESSURE COUPLING ACTIVE
Info:     TARGET PRESSURE IS 1 BAR
Info:     COMPRESSIBILITY ESTIMATE IS 4.57e-05 BAR^(-1)
Info:     RELAXATION TIME IS 100 FS
Info:     APPLIED EVERY 2 STEPS
Info:     PRESSURE CONTROL IS GROUP-BASED
Info:       CELL FLUCTUATION IS ISOTROPIC
Info: PARTICLE MESH EWALD (PME) ACTIVE
Info: PME TOLERANCE               1e-06
Info: PME EWALD COEFFICIENT       0.257952
Info: PME INTERPOLATION ORDER     4
Info: PME GRID DIMENSIONS         80 96 80
Info: PME MAXIMUM GRID SPACING    1
Info: FULL ELECTROSTATIC EVALUATION FREQUENCY      2
Info: USING VERLET I (r-RESPA) MTS SCHEME.
Info: C1 SPLITTING OF LONG RANGE ELECTROSTATICS
Info: PLACING ATOMS IN PATCHES BY HYDROGEN GROUPS
Info: RIGID BONDS TO HYDROGEN : WATER
Info:         ERROR TOLERANCE : 1e-05
Info:          MAX ITERATIONS : 100
Info: RIGID WATER USING SETTLE ALGORITHM
Info: RANDOM NUMBER SEED     1503714110
Info: USE HYDROGEN BONDS?    NO
Info: Using AMBER format force field!
Info: AMBER PARM FILE        ../build/complex.top
Info: COORDINATE PDB         ../replicas/rep35/equilibration/eq1.coor
Info: Exclusions in PARM file will be ignored!
Info: SCNB (VDW SCALING)     2
Info: USING ARITHMETIC MEAN TO COMBINE L-J SIGMA PARAMETERS
Info: SUMMARY OF PARAMETERS:
Info: 71 BONDS
Info: 145 ANGLES
Info: 76 DIHEDRAL
Info: 0 IMPROPER
Info: 0 CROSSTERM
Info: 0 VDW
Info: 190 VDW_PAIRS
Info: 0 NBTHOLE_PAIRS
Info: STRUCTURE SUMMARY:
Info: 49394 ATOMS
Info: 49448 BONDS
Info: 8698 ANGLES
Info: 18780 DIHEDRALS
Info: 0 IMPROPERS
Info: 0 CROSSTERMS
Info: 0 EXCLUSIONS
Info: 2336 CONSTRAINTS
Info: 44667 RIGID BONDS
Info: 103515 DEGREES OF FREEDOM
Info: 17225 HYDROGEN GROUPS
Info: 4 ATOMS IN LARGEST HYDROGEN GROUP
Info: 17225 MIGRATION GROUPS
Info: 4 ATOMS IN LARGEST MIGRATION GROUP
Info: TOTAL MASS = 301478 amu
Info: TOTAL CHARGE = 1.00115e-05 e
Info: MASS DENSITY = 0.935846 g/cm^3
Info: ATOM DENSITY = 0.0923345 atoms/A^3
Info: ADDED 70656 IMPLICIT EXCLUSIONS
Info: NONBONDED TABLE R-SQUARED SPACING: 0.0625
Info: NONBONDED TABLE SIZE: 769 POINTS
Info: REMOVING COM VELOCITY -0.0188039 -0.00214585 0.0299024
TCL: Running for 5000 steps
ETITLE: TS BOND ANGLE DIHED IMPRP ELECT VDW BOUNDARY MISC KINETIC TOTAL TEMP POTENTIAL TOTAL3 TEMPAVG PRESSURE GPRESSURE VOLUME PRESSAVG GPRESSAVG
ENERGY: 0 407.6101 1228.5715 2906.0473 0.0000 -212713.8337 29587.0215 0.0000 0.0000 10051.2753 -168533.3081 97.7256 -178584.5833 -168523.5444 97.7256 -2367.5082 -2469.7497 534946.2959 -2367.5082 -2469.7497
ENERGY: 1000 1274.2881 2016.9654 3100.6792 0.0000 -193627.1091 26537.9931 775.8902 0.0000 24091.1251 -135830.1679 234.2309 -159921.2931 -135795.8376 218.6237 -87.8095 -14.7365 523414.8157 -11.1029 -11.1363
ENERGY: 2000 1474.9640 2144.7188 3125.9981 0.0000 -184376.1116 23374.1592 790.4175 0.0000 27964.2245 -125501.6295 271.8879 -153465.8541 -125455.1197 263.5890 9.5621 -14.4629 518775.0049 -13.8177 -13.9880
ENERGY: 3000 1518.5396 2237.4824 3133.5841 0.0000 -179456.7525 21882.1723 786.7965 0.0000 29510.8862 -120387.2914 286.9256 -149898.1776 -120346.7997 284.2544 -80.4966 -17.5148 512583.2544 -25.0078 -25.4036
ENERGY: 4000 1572.0401 2204.1083 3138.8888 0.0000 -176983.0572 21010.7462 796.9400 0.0000 30132.6990 -118127.6348 292.9713 -148260.3338 -118076.1019 293.2115 -53.2215 -21.0836 507821.3524 -19.2581 -19.6707
ENERGY: 5000 1563.4920 2226.0340 3100.7333 0.0000 -176353.7752 20680.7289 795.8984 0.0000 30795.3881 -117191.5005 299.4145 -147986.8886 -117144.9720 297.1565 -36.7324 -4.2995 504025.6463 -18.2737 -17.9700
TCL: Setting parameter constraintScaling to 5.0
TCL: Running for 5000 steps
ETITLE: TS BOND ANGLE DIHED IMPRP ELECT VDW BOUNDARY MISC KINETIC TOTAL TEMP POTENTIAL TOTAL3 TEMPAVG PRESSURE GPRESSURE VOLUME PRESSAVG GPRESSAVG
ENERGY: 5000 1563.4920 2226.0340 3100.7333 0.0000 -176353.7752 20680.7289 397.9492 0.0000 30793.3596 -117591.4782 299.3947 -148384.8378 -117546.0406 299.3947 -42.1204 -11.7589 504025.6463 -42.1204 -11.7589
ENERGY: 6000 1550.7590 2249.7264 3165.9484 0.0000 -175568.7762 20202.2668 656.8561 0.0000 30865.2907 -116877.9288 300.0941 -147743.2195 -116825.6689 298.9885 -51.2695 44.1242 503449.9717 -6.7042 -6.8615
ENERGY: 7000 1630.5285 2327.1602 3167.5841 0.0000 -175606.1968 20081.3755 690.6630 0.0000 30432.4370 -117276.4485 295.8856 -147708.8855 -117242.2993 297.9344 14.8478 30.2633 503874.7177 6.0763 5.8857
ENERGY: 8000 1578.2532 2366.3921 3170.0525 0.0000 -176111.6156 20636.7659 625.9193 0.0000 30859.6172 -116874.6155 300.0389 -147734.2327 -116830.6291 299.3041 -97.2856 -9.6041 502355.7165 -9.9876 -9.1834
ENERGY: 9000 1549.3744 2293.0323 3165.9296 0.0000 -175068.7819 19972.5757 638.2998 0.0000 30680.2417 -116769.3285 298.2949 -147449.5702 -116723.2307 299.2399 -59.8290 -8.3421 501448.6050 -10.2345 -10.5734
ENERGY: 10000 1566.7635 2298.9285 3164.0892 0.0000 -175124.8088 20032.0857 622.1798 0.0000 30748.4684 -116692.2936 298.9583 -147440.7621 -116649.6205 300.0643 -19.5063 -33.7504 502273.1558 4.3539 4.4749
TCL: Setting parameter constraintScaling to 2.5
TCL: Running for 5000 steps
ETITLE: TS BOND ANGLE DIHED IMPRP ELECT VDW BOUNDARY MISC KINETIC TOTAL TEMP POTENTIAL TOTAL3 TEMPAVG PRESSURE GPRESSURE VOLUME PRESSAVG GPRESSAVG
ENERGY: 10000 1566.7635 2298.9285 3164.0892 0.0000 -175124.8088 20032.0857 311.0899 0.0000 30746.4383 -117005.4137 298.9385 -147751.8520 -116958.3722 298.9385 -53.5472 -62.9420 502273.1558 -53.5472 -62.9420
ENERGY: 11000 1609.7975 2324.2096 3171.8358 0.0000 -175447.0706 20101.5967 497.4075 0.0000 30604.5751 -117137.6484 297.5592 -147742.2235 -117085.1310 298.4234 -89.7546 38.6688 501513.3285 7.5054 7.2333
ENERGY: 12000 1595.7583 2367.4892 3170.7669 0.0000 -175820.2358 20284.0996 520.0525 0.0000 30837.1463 -117044.9231 299.8205 -147882.0694 -117003.1804 299.1216 -135.9767 16.3588 501110.7479 -4.4600 -4.8562
ENERGY: 13000 1644.6695 2342.6027 3205.1696 0.0000 -175453.4601 19856.5970 524.4639 0.0000 31236.9604 -116642.9971 303.7077 -147879.9574 -116609.0212 300.1149 -2.8602 23.5016 499126.8804 -17.2047 -17.5520
ENERGY: 14000 1652.6915 2317.6264 3178.9675 0.0000 -175691.0740 19951.9644 522.4081 0.0000 30886.7767 -117180.6395 300.3030 -148067.4162 -117135.9896 299.8483 43.6218 -13.5129 498594.0716 -6.1675 -6.4591
ENERGY: 15000 1559.3443 2354.7839 3197.6912 0.0000 -175534.9907 19967.1358 523.1958 0.0000 30933.1093 -116999.7305 300.7535 -147932.8398 -116943.8062 299.5239 -33.6889 -39.5234 499516.7570 5.8742 5.4013
TCL: Setting parameter constraintScaling to 1.25
TCL: Running for 5000 steps
ETITLE: TS BOND ANGLE DIHED IMPRP ELECT VDW BOUNDARY MISC KINETIC TOTAL TEMP POTENTIAL TOTAL3 TEMPAVG PRESSURE GPRESSURE VOLUME PRESSAVG GPRESSAVG
ENERGY: 15000 1559.3443 2354.7839 3197.6912 0.0000 -175534.9907 19967.1358 261.5979 0.0000 30931.0868 -117263.3509 300.7338 -148194.4377 -117216.2192 300.7338 -60.8569 -63.5665 499516.7570 -60.8569 -63.5665
ENERGY: 16000 1576.4393 2415.7795 3212.3474 0.0000 -175676.9801 20067.3099 398.1496 0.0000 30993.3570 -117013.5974 301.3393 -148006.9544 -116965.7606 300.1781 17.0324 18.6961 498643.2953 1.5215 0.9896
ENERGY: 17000 1620.7990 2301.8574 3185.7953 0.0000 -175146.4917 19786.6590 404.9095 0.0000 30672.7916 -117173.6799 298.2225 -147846.4715 -117126.3340 299.2424 -13.2791 46.1980 498039.1918 -1.1328 -1.3798
ENERGY: 18000 1597.8940 2376.7343 3156.8367 0.0000 -176324.9767 20414.8278 386.4500 0.0000 30730.1888 -117662.0451 298.7806 -148392.2339 -117619.4121 298.4268 37.2838 -3.4449 498492.4701 -5.2841 -5.9646
ENERGY: 19000 1623.6286 2353.8379 3186.5011 0.0000 -176047.9871 20220.1856 392.7498 0.0000 30719.5943 -117551.4898 298.6775 -148271.0841 -117498.8930 298.1981 -93.5073 5.9391 498691.6559 0.4069 0.6434
ENERGY: 20000 1620.9779 2407.7627 3173.6225 0.0000 -175891.3884 20067.0133 398.2668 0.0000 30758.8718 -117464.8734 299.0594 -148223.7452 -117410.5876 298.8701 37.5459 41.9876 498756.1766 15.5005 15.5032
TCL: Setting parameter constraintScaling to 0.625
TCL: Running for 5000 steps
ETITLE: TS BOND ANGLE DIHED IMPRP ELECT VDW BOUNDARY MISC KINETIC TOTAL TEMP POTENTIAL TOTAL3 TEMPAVG PRESSURE GPRESSURE VOLUME PRESSAVG GPRESSAVG
ENERGY: 20000 1620.9779 2407.7627 3173.6225 0.0000 -175891.3884 20067.0133 199.1334 0.0000 30756.8404 -117666.0382 299.0397 -148422.8786 -117622.6480 299.0397 4.0187 16.6520 498756.1766 4.0187 16.6520
ENERGY: 21000 1655.5374 2467.4729 3187.9182 0.0000 -175987.6464 20051.1659 313.5993 0.0000 30812.1277 -117499.8250 299.5772 -148311.9526 -117452.7723 298.8327 -231.4207 -60.9140 497695.7905 -2.2606 -2.5886
ENERGY: 22000 1638.6985 2384.1246 3195.7669 0.0000 -175605.9173 19909.8747 323.1635 0.0000 30593.6836 -117560.6054 297.4534 -148154.2890 -117515.1464 298.8982 80.2398 13.1613 497465.0062 -3.5059 -3.8863
ENERGY: 23000 1627.7125 2459.8810 3188.0277 0.0000 -175728.4755 20065.5663 353.2012 0.0000 30902.4206 -117131.6661 300.4551 -148034.0867 -117090.8190 299.4930 53.5565 30.4113 497750.2073 3.7130 3.7652
ENERGY: 24000 1601.8904 2351.4530 3202.7397 0.0000 -175330.0910 19954.3650 311.5133 0.0000 30718.6916 -117189.4380 298.6688 -147908.1296 -117148.0291 300.2672 44.5946 88.5471 498418.4369 -1.8471 -1.7560
ENERGY: 25000 1607.0543 2410.1875 3194.8571 0.0000 -175762.5190 20045.2286 319.2491 0.0000 30895.6277 -117290.3146 300.3891 -148185.9423 -117242.5897 300.0006 -129.0568 -104.5684 499441.7502 11.4445 11.1946
TCL: Setting parameter constraintScaling to 0.3125
TCL: Running for 5000 steps
ETITLE: TS BOND ANGLE DIHED IMPRP ELECT VDW BOUNDARY MISC KINETIC TOTAL TEMP POTENTIAL TOTAL3 TEMPAVG PRESSURE GPRESSURE VOLUME PRESSAVG GPRESSAVG
ENERGY: 25000 1607.0543 2410.1875 3194.8571 0.0000 -175762.5190 20045.2286 159.6245 0.0000 30893.5941 -117451.9727 300.3693 -148345.5668 -117407.3400 300.3693 -140.6499 -113.9239 499441.7502 -140.6499 -113.9239
ENERGY: 26000 1576.0614 2410.8263 3217.4308 0.0000 -175873.4960 20053.2168 261.7062 0.0000 30884.6765 -117469.5781 300.2826 -148354.2545 -117423.8373 298.8319 -9.4071 61.5824 496845.4787 -2.3019 -2.1037
ENERGY: 27000 1614.3724 2419.8875 3207.1220 0.0000 -175677.4253 20022.1597 249.3378 0.0000 30751.8719 -117412.6740 298.9914 -148164.5459 -117371.0641 299.8714 3.4927 26.5251 497549.0923 -2.6079 -2.0530
ENERGY: 28000 1647.9391 2409.9332 3215.1225 0.0000 -175906.2265 20126.7606 255.0991 0.0000 30651.9510 -117599.4210 298.0199 -148251.3720 -117545.6045 299.5881 -51.8157 1.7620 497913.3395 10.2557 9.8865
ENERGY: 29000 1640.3255 2401.4939 3224.2069 0.0000 -176146.0898 20078.7618 242.8985 0.0000 30904.5897 -117653.8137 300.4762 -148558.4034 -117600.6874 298.7702 -153.1249 -74.3005 497699.7394 2.2267 2.6425
ENERGY: 30000 1641.2350 2424.7449 3158.5055 0.0000 -176077.0684 20162.6271 265.5033 0.0000 30793.5303 -117630.9222 299.3964 -148424.4526 -117593.7021 299.4692 -27.1736 -68.7103 497349.7516 -2.0270 -2.0036
TCL: Setting parameter constraintScaling to 0.15625
TCL: Running for 5000 steps
ETITLE: TS BOND ANGLE DIHED IMPRP ELECT VDW BOUNDARY MISC KINETIC TOTAL TEMP POTENTIAL TOTAL3 TEMPAVG PRESSURE GPRESSURE VOLUME PRESSAVG GPRESSAVG
ENERGY: 30000 1641.2350 2424.7449 3158.5055 0.0000 -176077.0684 20162.6271 132.7517 0.0000 30791.4741 -117765.7301 299.3764 -148557.2042 -117721.7114 299.3764 -10.7033 -54.9953 497349.7516 -10.7033 -54.9953
ENERGY: 31000 1628.0237 2412.0521 3186.4397 0.0000 -175834.2615 20159.8090 207.3046 0.0000 30696.1416 -117544.4908 298.4495 -148240.6323 -117507.0988 299.3311 76.3968 62.0008 498386.2268 13.1544 13.8219
ENERGY: 32000 1661.2133 2427.7702 3231.5556 0.0000 -176067.4143 20389.6245 239.4005 0.0000 30759.4031 -117358.4471 299.0646 -148117.8502 -117309.4836 300.1829 -76.9540 -11.0832 499717.1058 5.7295 5.6440
ENERGY: 33000 1623.0440 2383.4493 3209.1634 0.0000 -175851.7732 20159.9892 215.8790 0.0000 30762.0182 -117498.2301 299.0900 -148260.2483 -117454.8691 299.3653 -6.4950 35.6195 499631.4941 8.2256 8.0315
ENERGY: 34000 1617.5664 2374.4327 3184.6829 0.0000 -176076.2560 20106.8676 221.6258 0.0000 30860.9060 -117710.1746 300.0515 -148571.0806 -117673.0500 298.0263 -128.5113 -85.5937 497607.5542 -6.0761 -6.5835
ENERGY: 35000 1626.9742 2396.8393 3171.5184 0.0000 -176180.7417 20340.7643 229.3104 0.0000 30759.3345 -117656.0006 299.0639 -148415.3351 -117608.4852 299.1567 14.9998 91.8363 498827.5409 9.4340 10.0396
TCL: Setting parameter constraintScaling to 0.078125
TCL: Running for 5000 steps
ETITLE: TS BOND ANGLE DIHED IMPRP ELECT VDW BOUNDARY MISC KINETIC TOTAL TEMP POTENTIAL TOTAL3 TEMPAVG PRESSURE GPRESSURE VOLUME PRESSAVG GPRESSAVG
ENERGY: 35000 1626.9742 2396.8393 3171.5184 0.0000 -176180.7417 20340.7643 114.6552 0.0000 30757.2702 -117772.7201 299.0439 -148529.9903 -117729.0130 299.0439 -2.5351 75.4497 498827.5409 -2.5351 75.4497
ENERGY: 36000 1591.9484 2386.7194 3198.3123 0.0000 -176137.1250 20265.9939 141.6062 0.0000 30683.6433 -117868.9014 298.3280 -148552.5448 -117822.3163 298.5770 -51.2599 25.6477 498236.6565 10.0849 10.3289
ENERGY: 37000 1579.3889 2403.4498 3212.1723 0.0000 -176136.8331 20207.5769 160.3323 0.0000 30929.0756 -117644.8374 300.7143 -148573.9130 -117612.9467 299.3828 160.1069 127.5288 498160.5336 10.6095 10.3971
ENERGY: 38000 1605.4703 2390.7008 3163.9437 0.0000 -175814.9778 19963.8855 166.6183 0.0000 30863.5437 -117660.8155 300.0771 -148524.3592 -117613.1416 298.4808 -160.0848 -140.1881 498007.2138 6.6035 6.8838
ENERGY: 39000 1657.1624 2346.2796 3186.1622 0.0000 -175851.3028 19975.4819 164.8629 0.0000 30762.2840 -117759.0699 299.0926 -148521.3539 -117719.2216 298.7670 -21.7723 -37.0625 495714.8269 9.7981 9.5305
ENERGY: 40000 1591.1489 2446.8442 3227.4579 0.0000 -175988.9792 20198.7865 182.5587 0.0000 30861.5925 -117480.5906 300.0582 -148342.1831 -117437.8193 299.8848 -31.6695 31.2597 496961.9000 -0.1334 -0.1035
TCL: Setting parameter constraintScaling to 0.0390625
TCL: Running for 5000 steps
ETITLE: TS BOND ANGLE DIHED IMPRP ELECT VDW BOUNDARY MISC KINETIC TOTAL TEMP POTENTIAL TOTAL3 TEMPAVG PRESSURE GPRESSURE VOLUME PRESSAVG GPRESSAVG
ENERGY: 40000 1591.1489 2446.8442 3227.4579 0.0000 -175988.9792 20198.7865 91.2793 0.0000 30859.5494 -117573.9130 300.0383 -148433.4624 -117531.2813 300.0383 -53.7677 13.1487 496961.9000 -53.7677 13.1487
ENERGY: 41000 1704.2147 2467.4482 3221.2503 0.0000 -176448.5269 20219.8039 109.1533 0.0000 31140.2348 -117586.4216 302.7673 -148726.6564 -117537.3209 299.8459 23.5300 63.7225 497749.9159 7.6817 7.5036
ENERGY: 42000 1651.9569 2430.4113 3217.9133 0.0000 -176249.4092 20210.3517 125.0321 0.0000 30653.5598 -117960.1841 298.0355 -148613.7439 -117917.1861 299.6273 -51.2038 -37.2737 497003.2590 -0.2738 -0.3860
ENERGY: 43000 1693.1877 2427.7628 3226.9702 0.0000 -175777.5959 19918.8471 121.0136 0.0000 31045.5736 -117344.2407 301.8469 -148389.8143 -117303.5789 300.3975 -79.3590 -26.6807 496546.3965 -0.8131 -0.0185
ENERGY: 44000 1661.6121 2371.6201 3176.2105 0.0000 -175898.0422 20112.1680 125.0443 0.0000 30877.1546 -117574.2326 300.2095 -148451.3872 -117539.9439 299.6942 77.1529 84.8613 496765.8593 0.3248 0.9225
ENERGY: 45000 1656.9079 2403.1115 3224.5249 0.0000 -175641.6708 19883.7930 123.5578 0.0000 30840.7906 -117508.9851 299.8559 -148349.7757 -117465.8173 299.6900 -104.5100 -51.4536 497964.0911 19.4605 19.4547
TCL: Setting parameter constraintScaling to 0.01953125
TCL: Running for 5000 steps
ETITLE: TS BOND ANGLE DIHED IMPRP ELECT VDW BOUNDARY MISC KINETIC TOTAL TEMP POTENTIAL TOTAL3 TEMPAVG PRESSURE GPRESSURE VOLUME PRESSAVG GPRESSAVG
ENERGY: 45000 1656.9079 2403.1115 3224.5249 0.0000 -175641.6707 19883.7930 61.7789 0.0000 30838.7417 -117572.8129 299.8360 -148411.5546 -117530.0889 299.8360 -107.6345 -60.0568 497964.0911 -107.6345 -60.0568
ENERGY: 46000 1683.3810 2448.7505 3169.4128 0.0000 -175995.5787 20031.7186 77.5376 0.0000 30794.4922 -117790.2859 299.4058 -148584.7782 -117742.3418 299.8964 -2.5611 -5.5355 496077.8042 -9.0756 -8.6168
ENERGY: 47000 1619.7996 2407.9662 3202.4963 0.0000 -175701.8083 19971.8375 85.3611 0.0000 30691.9101 -117722.4376 298.4084 -148414.3476 -117677.3712 299.2102 -75.0586 -0.0577 495762.2167 -0.0024 0.1151
ENERGY: 48000 1650.4044 2388.4446 3196.3935 0.0000 -175893.2116 19986.9085 89.8028 0.0000 30843.5336 -117737.7242 299.8826 -148581.2579 -117695.9120 299.9124 25.8013 52.5389 496322.3456 9.0230 9.1010
ENERGY: 49000 1742.6436 2399.8397 3227.5988 0.0000 -176079.9069 20049.4553 96.9898 0.0000 31050.5029 -117512.8768 301.8949 -148563.3797 -117468.1028 300.5896 -138.9909 -17.8558 496645.0373 7.1602 7.5548
ENERGY: 50000 1687.9341 2468.6975 3181.9893 0.0000 -175809.5911 20052.1698 102.5477 0.0000 30808.9107 -117507.3421 299.5459 -148316.2527 -117460.0267 300.5540 -53.1725 16.3170 497093.8910 1.1790 1.0994
TCL: Setting parameter constraintScaling to 0
TCL: Running for 5000 steps
ETITLE: TS BOND ANGLE DIHED IMPRP ELECT VDW BOUNDARY MISC KINETIC TOTAL TEMP POTENTIAL TOTAL3 TEMPAVG PRESSURE GPRESSURE VOLUME PRESSAVG GPRESSAVG
ENERGY: 50000 1687.9341 2468.6975 3181.9893 0.0000 -175809.5911 20052.1698 0.0000 0.0000 30806.8790 -117611.9214 299.5262 -148418.8004 -117569.5833 299.5262 -40.5359 22.7841 497093.8910 -40.5359 22.7841
ENERGY: 51000 1585.1006 2414.7548 3192.4370 0.0000 -175933.5590 19942.7531 0.0000 0.0000 30655.5057 -118143.0078 298.0544 -148798.5135 -118096.1797 299.5845 -76.0696 1.4954 495672.6789 3.2463 3.1453
ENERGY: 52000 1649.9448 2401.5554 3204.5472 0.0000 -175762.2878 20052.4211 0.0000 0.0000 30617.9961 -117835.8232 297.6897 -148453.8193 -117793.0511 299.8818 -36.3230 -21.6795 496123.9770 21.0901 21.0257
ENERGY: 53000 1612.3105 2383.6409 3148.4909 0.0000 -176176.9061 20110.5489 0.0000 0.0000 30742.9194 -118178.9955 298.9043 -148921.9149 -118138.5482 298.6673 -43.3398 24.5111 496394.4551 -3.5138 -3.3684
ENERGY: 54000 1642.2602 2391.2225 3185.2506 0.0000 -175934.7163 20101.6893 0.0000 0.0000 30666.3171 -117947.9765 298.1595 -148614.2936 -117892.9081 299.0902 -25.3023 80.4257 496830.9871 5.8992 5.9079
ENERGY: 55000 1654.7622 2451.9368 3206.0439 0.0000 -176394.2567 20295.7022 0.0000 0.0000 30885.0302 -117900.7814 300.2860 -148785.8115 -117852.0934 299.0497 147.9441 144.4753 497025.0293 14.6954 14.2556
