Info: SIMULATION PARAMETERS:
Info: TIMESTEP               1
Info: NUMBER OF STEPS        0
Info: STEPS PER CYCLE        10
Info: PERIODIC CELL BASIS 1  72.449 0 0
Info: PERIODIC CELL BASIS 2  0 93.247 0
Info: PERIODIC CELL BASIS 3  0 0 79.185
Info: PERIODIC CELL CENTER   -0.248 -0.156 -0.047
Info: WRAPPING WATERS AROUND PERIODIC BOUNDARIES ON OUTPUT.
Info: WRAPPING ALL CLUSTERS AROUND PERIODIC BOUNDARIES ON OUTPUT.
Info: FIRST LDB TIMESTEP     50
Info: LAST LDB TIMESTEP     -1
Info: HOM BACKGROUND SCALING 1
Info: PME BACKGROUND SCALING 1
Info: MIN ATOMS PER PATCH    40
Info: VELOCITY FILE          ../replicas/rep102/equilibration/eq1.vel
Info: CENTER OF MASS MOVING INITIALLY? NO
Info: DIELECTRIC             1
Info: EXCLUDE                SCALED ONE-FOUR
Info: 1-4 ELECTROSTATICS SCALED BY 0.833333
Info: MODIFIED 1-4 VDW PARAMETERS WILL BE USED
Info: DCD FILENAME           ../replicas/rep102/equilibration/eq2.dcd
Info: DCD FREQUENCY          5000
Info: DCD FIRST STEP         5000
Info: DCD FILE WILL CONTAIN UNIT CELL DATA
Info: XST FILENAME           ../replicas/rep102/equilibration/eq2.xst
Info: XST FREQUENCY          5000
Info: NO VELOCITY DCD OUTPUT
Info: NO FORCE DCD OUTPUT
Info: OUTPUT FILENAME        ../replicas/rep102/equilibration/eq2
Info: RESTART FILENAME       ../replicas/rep102/equilibration/eq2.restart
Info: RESTART FREQUENCY      5000
Info: BINARY RESTART FILES WILL BE USED
Info: SWITCHING ACTIVE
Info: SWITCHING ON           10
Info: SWITCHING OFF          12
Info: PAIRLIST DISTANCE      13.5
Info: PAIRLIST SHRINK RATE   0.01
Info: PAIRLIST GROW RATE     0.01
Info: PAIRLIST TRIGGER       0.3
Info: PAIRLISTS PER CYCLE    2
Info: PAIRLISTS ENABLED
Info: MARGIN                 0.48
Info: HYDROGEN GROUP CUTOFF  2.5
Info: PATCH DIMENSION        16.48
Info: ENERGY OUTPUT STEPS    500
Info: CROSSTERM ENERGY INCLUDED IN DIHEDRAL
Info: TIMING OUTPUT STEPS    5000
Info: PRESSURE OUTPUT STEPS  500
Info: HARMONIC CONSTRAINTS ACTIVE
Info: HARMONIC CONS EXP      2
Info: HARMONIC CONS SCALING  10
Info: LANGEVIN DYNAMICS ACTIVE
Info: LANGEVIN TEMPERATURE   300
Info: LANGEVIN USING BBK INTEGRATOR
Info: LANGEVIN DAMPING COEFFICIENT IS 5 INVERSE PS
Info: LANGEVIN DYNAMICS NOT APPLIED TO HYDROGENS
Info: BERENDSEN PRESSURE COUPLING ACTIVE
Info:     TARGET PRESSURE IS 1 BAR
Info:     COMPRESSIBILITY ESTIMATE IS 4.57e-05 BAR^(-1)
Info:     RELAXATION TIME IS 100 FS
Info:     APPLIED EVERY 2 STEPS
Info:     PRESSURE CONTROL IS GROUP-BASED
Info:       CELL FLUCTUATION IS ISOTROPIC
Info: PARTICLE MESH EWALD (PME) ACTIVE
Info: PME TOLERANCE               1e-06
Info: PME EWALD COEFFICIENT       0.257952
Info: PME INTERPOLATION ORDER     4
Info: PME GRID DIMENSIONS         80 96 80
Info: PME MAXIMUM GRID SPACING    1
Info: FULL ELECTROSTATIC EVALUATION FREQUENCY      2
Info: USING VERLET I (r-RESPA) MTS SCHEME.
Info: C1 SPLITTING OF LONG RANGE ELECTROSTATICS
Info: PLACING ATOMS IN PATCHES BY HYDROGEN GROUPS
Info: RIGID BONDS TO HYDROGEN : WATER
Info:         ERROR TOLERANCE : 1e-05
Info:          MAX ITERATIONS : 100
Info: RIGID WATER USING SETTLE ALGORITHM
Info: RANDOM NUMBER SEED     1503709990
Info: USE HYDROGEN BONDS?    NO
Info: Using AMBER format force field!
Info: AMBER PARM FILE        ../build/complex.top
Info: COORDINATE PDB         ../replicas/rep102/equilibration/eq1.coor
Info: Exclusions in PARM file will be ignored!
Info: SCNB (VDW SCALING)     2
Info: USING ARITHMETIC MEAN TO COMBINE L-J SIGMA PARAMETERS
Info: SUMMARY OF PARAMETERS:
Info: 71 BONDS
Info: 145 ANGLES
Info: 76 DIHEDRAL
Info: 0 IMPROPER
Info: 0 CROSSTERM
Info: 0 VDW
Info: 190 VDW_PAIRS
Info: 0 NBTHOLE_PAIRS
Info: STRUCTURE SUMMARY:
Info: 49394 ATOMS
Info: 49448 BONDS
Info: 8698 ANGLES
Info: 18780 DIHEDRALS
Info: 0 IMPROPERS
Info: 0 CROSSTERMS
Info: 0 EXCLUSIONS
Info: 2336 CONSTRAINTS
Info: 44667 RIGID BONDS
Info: 103515 DEGREES OF FREEDOM
Info: 17225 HYDROGEN GROUPS
Info: 4 ATOMS IN LARGEST HYDROGEN GROUP
Info: 17225 MIGRATION GROUPS
Info: 4 ATOMS IN LARGEST MIGRATION GROUP
Info: TOTAL MASS = 301478 amu
Info: TOTAL CHARGE = 1.00115e-05 e
Info: MASS DENSITY = 0.935846 g/cm^3
Info: ATOM DENSITY = 0.0923345 atoms/A^3
Info: ADDED 70656 IMPLICIT EXCLUSIONS
Info: NONBONDED TABLE R-SQUARED SPACING: 0.0625
Info: NONBONDED TABLE SIZE: 769 POINTS
Info: REMOVING COM VELOCITY -0.00354551 -0.00840127 0.009644
TCL: Running for 5000 steps
ETITLE: TS BOND ANGLE DIHED IMPRP ELECT VDW BOUNDARY MISC KINETIC TOTAL TEMP POTENTIAL TOTAL3 TEMPAVG PRESSURE GPRESSURE VOLUME PRESSAVG GPRESSAVG
ENERGY: 0 386.3635 1228.4471 2893.6534 0.0000 -212471.7598 29464.9609 0.0000 0.0000 10061.8384 -168436.4963 97.8283 -178498.3348 -168426.8224 97.8283 -2359.1587 -2457.7792 534946.2959 -2359.1587 -2457.7792
ENERGY: 1000 1269.0651 2004.2447 3097.9294 0.0000 -193529.6049 26413.6015 816.2204 0.0000 24109.6565 -135818.8873 234.4111 -159928.5438 -135792.7617 218.7014 -44.2529 -17.4102 523048.6482 -9.6394 -9.8934
ENERGY: 2000 1399.8112 2141.2298 3131.3566 0.0000 -184761.7247 23551.2150 788.6561 0.0000 27946.7745 -125802.6814 271.7182 -153749.4560 -125762.3741 263.3865 -4.7919 -45.1188 514821.8856 -27.4101 -27.1976
ENERGY: 3000 1547.8757 2185.1002 3133.3643 0.0000 -179380.3423 21681.9782 809.0256 0.0000 29315.5340 -120707.4643 285.0263 -150022.9984 -120660.5944 284.1109 -16.0504 -11.7038 510163.9234 -15.1899 -15.1857
ENERGY: 4000 1538.1010 2253.7045 3117.7006 0.0000 -177143.8065 20795.9344 784.6875 0.0000 30274.1531 -118379.5254 294.3467 -148653.6785 -118335.5372 292.1710 -19.4547 20.8102 507321.2844 -13.0866 -13.1744
ENERGY: 5000 1559.0717 2256.5319 3168.9806 0.0000 -176023.1665 20461.5237 824.1676 0.0000 30587.9563 -117164.9347 297.3977 -147752.8910 -117122.2794 296.4305 -25.8890 -30.3986 506388.0941 1.1250 1.0583
TCL: Setting parameter constraintScaling to 5.0
TCL: Running for 5000 steps
ETITLE: TS BOND ANGLE DIHED IMPRP ELECT VDW BOUNDARY MISC KINETIC TOTAL TEMP POTENTIAL TOTAL3 TEMPAVG PRESSURE GPRESSURE VOLUME PRESSAVG GPRESSAVG
ENERGY: 5000 1559.0717 2256.5319 3168.9806 0.0000 -176023.1665 20461.5237 412.0838 0.0000 30585.9262 -117579.0486 297.3779 -148164.9748 -117536.3485 297.3779 -56.4943 -66.3162 506388.0941 -56.4943 -66.3162
ENERGY: 6000 1593.0452 2347.7515 3146.6140 0.0000 -175825.5787 20473.8314 651.3944 0.0000 30712.1720 -116900.7701 298.6054 -147612.9422 -116854.0588 298.7400 -50.7293 -10.1497 504224.6372 -6.5854 -6.3669
ENERGY: 7000 1574.2099 2288.0162 3149.4283 0.0000 -175471.5315 20069.0034 636.8850 0.0000 30719.1623 -117034.8264 298.6733 -147753.9887 -116997.4066 299.9636 -65.1406 -21.1215 503710.2018 -3.4345 -3.3974
ENERGY: 8000 1564.3070 2309.2074 3175.8613 0.0000 -176095.5264 20455.5066 653.7479 0.0000 30808.9183 -117127.9780 299.5460 -147936.8962 -117085.8998 298.0627 13.9486 -0.0533 501793.7507 -2.8114 -2.8989
ENERGY: 9000 1603.5758 2266.8466 3178.5543 0.0000 -175824.7021 20223.3332 636.5540 0.0000 30760.0708 -117155.7673 299.0711 -147915.8381 -117112.7616 299.3458 76.2591 -9.1779 501417.1520 0.1934 0.3202
ENERGY: 10000 1631.0141 2324.2955 3173.6521 0.0000 -175753.8422 20122.3397 661.0767 0.0000 30702.3257 -117139.1385 298.5096 -147841.4642 -117087.9272 299.2991 -47.4384 2.8450 500585.3459 0.6670 0.8294
TCL: Setting parameter constraintScaling to 2.5
TCL: Running for 5000 steps
ETITLE: TS BOND ANGLE DIHED IMPRP ELECT VDW BOUNDARY MISC KINETIC TOTAL TEMP POTENTIAL TOTAL3 TEMPAVG PRESSURE GPRESSURE VOLUME PRESSAVG GPRESSAVG
ENERGY: 10000 1631.0141 2324.2955 3173.6521 0.0000 -175753.8422 20122.3397 330.5384 0.0000 30700.3105 -117471.6920 298.4901 -148172.0025 -117429.0462 298.4901 -94.9523 -36.0341 500585.3459 -94.9523 -36.0341
ENERGY: 11000 1606.7223 2361.8897 3159.0798 0.0000 -175779.0727 20132.1924 501.5583 0.0000 30717.1400 -117300.4902 298.6537 -148017.6301 -117247.9312 299.0664 -131.5750 -12.4413 499013.1905 -8.4686 -8.4199
ENERGY: 12000 1631.7989 2323.2562 3156.8567 0.0000 -175691.5443 20067.9118 510.3631 0.0000 30785.9970 -117215.3606 299.3232 -148001.3576 -117165.9712 299.0081 -24.4841 1.1824 500024.1873 -4.7755 -5.2299
ENERGY: 13000 1605.8692 2376.8486 3159.5501 0.0000 -175622.1755 20114.3332 500.0833 0.0000 30875.1403 -116990.3508 300.1899 -147865.4911 -116942.1852 300.0924 73.7545 8.2722 500081.6298 3.9160 3.9133
ENERGY: 14000 1641.1814 2441.1719 3175.9076 0.0000 -175594.7322 20353.4286 522.3131 0.0000 30836.6740 -116624.0557 299.8159 -147460.7296 -116582.4995 300.0750 42.1677 163.7305 501200.8103 9.5602 10.2731
ENERGY: 15000 1655.4328 2411.6806 3155.4094 0.0000 -175467.6160 20006.0270 527.2374 0.0000 30847.0391 -116864.7896 299.9167 -147711.8286 -116825.4429 300.0558 20.2684 42.9480 501864.5272 10.2919 10.5622
TCL: Setting parameter constraintScaling to 1.25
TCL: Running for 5000 steps
ETITLE: TS BOND ANGLE DIHED IMPRP ELECT VDW BOUNDARY MISC KINETIC TOTAL TEMP POTENTIAL TOTAL3 TEMPAVG PRESSURE GPRESSURE VOLUME PRESSAVG GPRESSAVG
ENERGY: 15000 1655.4328 2411.6806 3155.4094 0.0000 -175467.6160 20006.0270 263.6187 0.0000 30845.0194 -117130.4280 299.8970 -147975.4473 -117089.8554 299.8970 -91.7665 -71.8336 501864.5272 -91.7665 -71.8336
ENERGY: 16000 1550.2896 2448.8043 3196.2419 0.0000 -175449.2203 20039.1108 403.1371 0.0000 31007.0793 -116804.5573 301.4727 -147811.6365 -116745.9236 300.4016 -2.8598 20.1832 500818.6430 -13.6602 -13.7020
ENERGY: 17000 1711.8164 2306.3659 3182.3424 0.0000 -175999.6710 20391.2534 408.0350 0.0000 30708.5751 -117291.2828 298.5704 -147999.8579 -117255.8360 300.4577 -94.7793 -45.2233 501018.1726 -0.2351 0.0763
ENERGY: 18000 1640.6252 2345.9071 3230.4103 0.0000 -176039.9297 20121.7374 399.1168 0.0000 30781.0525 -117521.0804 299.2751 -148302.1329 -117476.4898 298.3335 -125.8131 -64.0182 499496.4897 -2.8587 -3.0905
ENERGY: 19000 1721.6343 2343.7299 3161.0582 0.0000 -175736.5933 19997.3127 392.3700 0.0000 30766.5846 -117353.9036 299.1344 -148120.4882 -117302.4592 298.4508 77.8632 30.5709 500671.5863 15.9043 15.6745
ENERGY: 20000 1699.6842 2344.4005 3178.8071 0.0000 -176198.7968 20452.2372 412.2879 0.0000 30699.7855 -117411.5945 298.4849 -148111.3800 -117359.0487 298.5192 -220.0882 -25.1521 500533.5696 8.1403 8.6943
TCL: Setting parameter constraintScaling to 0.625
TCL: Running for 5000 steps
ETITLE: TS BOND ANGLE DIHED IMPRP ELECT VDW BOUNDARY MISC KINETIC TOTAL TEMP POTENTIAL TOTAL3 TEMPAVG PRESSURE GPRESSURE VOLUME PRESSAVG GPRESSAVG
ENERGY: 20000 1699.6842 2344.4005 3178.8071 0.0000 -176198.7968 20452.2372 206.1440 0.0000 30697.7339 -117619.7901 298.4650 -148317.5240 -117580.6534 298.4650 -277.1534 -89.3496 500533.5696 -277.1534 -89.3496
ENERGY: 21000 1655.6254 2348.6870 3172.2162 0.0000 -175661.5341 20107.9231 299.9484 0.0000 30702.9303 -117374.2037 298.5155 -148077.1340 -117319.2980 299.7973 34.7985 101.3874 498632.4998 -11.9982 -11.7066
ENERGY: 22000 1666.2511 2405.8009 3209.8423 0.0000 -175818.7350 20048.2138 337.5457 0.0000 30738.1042 -117412.9771 298.8575 -148151.0813 -117379.3800 300.0374 6.3956 -1.8187 499078.9351 11.2258 10.9249
ENERGY: 23000 1661.2658 2360.4132 3204.8641 0.0000 -176049.7477 20305.6120 290.5832 0.0000 30870.9263 -117356.0830 300.1489 -148227.0093 -117320.6421 298.8063 -98.1146 -1.1617 499684.0942 4.8000 4.9527
ENERGY: 24000 1650.2060 2365.1333 3215.6550 0.0000 -175776.5511 19989.9185 313.1958 0.0000 30830.6564 -117411.7863 299.7574 -148242.4426 -117376.7827 299.0720 -58.2058 -70.2834 498758.8866 -13.0447 -13.0015
ENERGY: 25000 1698.4822 2407.7328 3176.8006 0.0000 -175548.9692 19984.0075 323.7120 0.0000 30993.7964 -116964.4377 301.3435 -147958.2341 -116916.8703 300.4049 -179.5862 -142.0846 497493.2292 -10.9962 -11.2849
TCL: Setting parameter constraintScaling to 0.3125
TCL: Running for 5000 steps
ETITLE: TS BOND ANGLE DIHED IMPRP ELECT VDW BOUNDARY MISC KINETIC TOTAL TEMP POTENTIAL TOTAL3 TEMPAVG PRESSURE GPRESSURE VOLUME PRESSAVG GPRESSAVG
ENERGY: 25000 1698.4822 2407.7328 3176.8006 0.0000 -175548.9692 19984.0075 161.8560 0.0000 30991.7638 -117128.3263 301.3238 -148120.0901 -117080.6040 301.3238 -191.3615 -156.3657 497493.2292 -191.3615 -156.3657
ENERGY: 26000 1617.9684 2396.0003 3206.0421 0.0000 -175472.0469 20001.7024 222.1594 0.0000 30955.5296 -117072.6446 300.9715 -148028.1742 -117034.8142 299.6878 -66.2460 -12.5870 498339.2219 8.0007 8.2809
ENERGY: 27000 1631.8225 2462.9110 3196.1885 0.0000 -175145.2506 19752.7085 242.7595 0.0000 31044.2552 -116814.6053 301.8341 -147858.8605 -116766.7950 300.5016 -91.4159 -40.2480 499626.0661 0.4408 -0.0063
ENERGY: 28000 1657.2984 2401.8133 3207.6303 0.0000 -175224.0410 19853.0386 240.3025 0.0000 31017.1123 -116846.8454 301.5702 -147863.9578 -116800.1329 299.4271 -12.7022 -54.6965 501271.6084 9.5073 9.3112
ENERGY: 29000 1631.5648 2399.9520 3187.2563 0.0000 -175550.1525 20105.8921 243.2139 0.0000 30840.6349 -117141.6386 299.8544 -147982.2735 -117097.6209 300.4949 6.4695 146.8304 499940.2985 -5.7476 -6.2746
ENERGY: 30000 1657.1751 2433.1456 3200.8536 0.0000 -175621.7384 20197.6074 258.8933 0.0000 30997.6073 -116876.4561 301.3806 -147874.0634 -116827.1989 301.2140 -13.3102 49.7278 500170.7214 -6.8888 -6.2349
TCL: Setting parameter constraintScaling to 0.15625
TCL: Running for 5000 steps
ETITLE: TS BOND ANGLE DIHED IMPRP ELECT VDW BOUNDARY MISC KINETIC TOTAL TEMP POTENTIAL TOTAL3 TEMPAVG PRESSURE GPRESSURE VOLUME PRESSAVG GPRESSAVG
ENERGY: 30000 1657.1751 2433.1456 3200.8536 0.0000 -175621.7384 20197.6074 129.4467 0.0000 30995.5514 -117007.9587 301.3606 -148003.5101 -116965.1558 301.3606 -24.5157 29.7419 500170.7214 -24.5157 29.7419
ENERGY: 31000 1675.3198 2397.3338 3233.7072 0.0000 -175702.1133 20043.2211 189.9169 0.0000 31008.9156 -117153.6990 301.4905 -148162.6146 -117116.3724 300.2354 -153.7488 -57.5857 500046.8494 2.7256 3.0126
ENERGY: 32000 1689.3493 2395.6704 3214.9799 0.0000 -175974.6970 20259.4691 206.3024 0.0000 30730.7318 -117478.1943 298.7858 -148208.9260 -117434.0805 299.5600 -62.9967 -62.7900 498146.2771 -1.3901 -1.0939
ENERGY: 33000 1587.7596 2430.5357 3202.8395 0.0000 -176100.0344 20065.9775 210.2297 0.0000 30668.9844 -117933.7081 298.1855 -148602.6925 -117882.3131 298.4584 31.4916 75.9418 498324.7342 1.7265 2.0157
ENERGY: 34000 1625.3634 2421.8166 3194.9585 0.0000 -175789.4146 20143.7988 203.3622 0.0000 30821.9861 -117378.1290 299.6731 -148200.1151 -117340.6936 299.6219 -42.7262 -10.2838 498464.7348 2.8262 2.7804
ENERGY: 35000 1700.3737 2380.0090 3219.1436 0.0000 -175700.7981 20051.5611 204.6311 0.0000 30788.6758 -117356.4038 299.3492 -148145.0796 -117312.9432 300.1487 23.0326 -30.3231 498181.1492 -1.2567 -0.9440
TCL: Setting parameter constraintScaling to 0.078125
TCL: Running for 5000 steps
ETITLE: TS BOND ANGLE DIHED IMPRP ELECT VDW BOUNDARY MISC KINETIC TOTAL TEMP POTENTIAL TOTAL3 TEMPAVG PRESSURE GPRESSURE VOLUME PRESSAVG GPRESSAVG
ENERGY: 35000 1700.3737 2380.0090 3219.1436 0.0000 -175700.7981 20051.5611 102.3155 0.0000 30786.6242 -117460.7709 299.3293 -148247.3951 -117416.0229 299.3293 -21.4656 -72.4962 498181.1492 -21.4656 -72.4962
ENERGY: 36000 1611.6700 2440.3873 3206.4410 0.0000 -176340.1906 20333.1685 158.1586 0.0000 30728.7815 -117861.5837 298.7669 -148590.3652 -117803.1825 299.0900 -18.0790 14.2157 497323.2868 -4.0657 -3.9127
ENERGY: 37000 1676.6518 2398.4361 3253.6361 0.0000 -176260.8749 20178.4918 164.7675 0.0000 30851.5663 -117737.3251 299.9607 -148588.8915 -117688.6477 299.2815 -147.1410 -5.3037 497415.5391 -5.0838 -4.6702
ENERGY: 38000 1640.6673 2356.5548 3218.6335 0.0000 -175762.6520 20066.0427 168.8367 0.0000 30854.3549 -117457.5620 299.9878 -148311.9170 -117415.9195 299.3869 -111.8577 12.8218 498067.9974 10.9688 11.2786
ENERGY: 39000 1609.6576 2419.3894 3239.9247 0.0000 -175901.7899 20047.9707 173.9675 0.0000 30761.6518 -117649.2281 299.0865 -148410.8799 -117598.1133 299.6854 -50.2719 6.8706 498320.4626 8.4006 8.0180
ENERGY: 40000 1586.7635 2412.7641 3214.8149 0.0000 -175703.9906 20066.0610 172.0993 0.0000 30861.8908 -117389.5969 300.0611 -148251.4878 -117346.3003 300.0016 -58.1900 32.3756 497359.8177 1.3194 2.0698
TCL: Setting parameter constraintScaling to 0.0390625
TCL: Running for 5000 steps
ETITLE: TS BOND ANGLE DIHED IMPRP ELECT VDW BOUNDARY MISC KINETIC TOTAL TEMP POTENTIAL TOTAL3 TEMPAVG PRESSURE GPRESSURE VOLUME PRESSAVG GPRESSAVG
ENERGY: 40000 1586.7635 2412.7641 3214.8149 0.0000 -175703.9906 20066.0610 86.0496 0.0000 30859.8380 -117477.6994 300.0411 -148337.5374 -117433.0536 300.0411 -71.7440 22.0470 497359.8177 -71.7440 22.0470
ENERGY: 41000 1668.3786 2431.1950 3225.5124 0.0000 -176080.2921 20201.3419 111.1392 0.0000 30596.8547 -117845.8703 297.4842 -148442.7250 -117815.6080 299.3479 -31.6475 47.2414 496411.7253 -7.7650 -7.8989
ENERGY: 42000 1620.0014 2443.6450 3195.9347 0.0000 -176003.5737 19887.3365 122.2503 0.0000 30820.0212 -117914.3846 299.6540 -148734.4058 -117865.6365 299.4889 25.8066 -60.6232 496335.4049 -0.5099 -0.3324
ENERGY: 43000 1690.3553 2363.7944 3226.4521 0.0000 -176016.9565 20146.6632 116.4474 0.0000 30803.3854 -117669.8587 299.4922 -148473.2441 -117623.6661 299.7984 -145.3603 -60.1879 496831.6653 1.0831 1.3210
ENERGY: 44000 1618.7644 2437.7020 3177.2886 0.0000 -176089.7640 20161.5917 133.0313 0.0000 30837.7203 -117723.6657 299.8260 -148561.3860 -117668.9244 299.2946 36.8329 90.5675 497047.9264 0.0616 0.2016
ENERGY: 45000 1689.3134 2433.4938 3193.6627 0.0000 -175761.9661 20037.0466 133.0775 0.0000 30790.3207 -117485.0513 299.3652 -148275.3721 -117441.4358 300.1705 -123.9101 -46.5418 497563.7461 7.0706 6.7099
TCL: Setting parameter constraintScaling to 0.01953125
TCL: Running for 5000 steps
ETITLE: TS BOND ANGLE DIHED IMPRP ELECT VDW BOUNDARY MISC KINETIC TOTAL TEMP POTENTIAL TOTAL3 TEMPAVG PRESSURE GPRESSURE VOLUME PRESSAVG GPRESSAVG
ENERGY: 45000 1689.3134 2433.4938 3193.6627 0.0000 -175761.9661 20037.0466 66.5387 0.0000 30788.2946 -117553.6162 299.3455 -148341.9108 -117510.8076 299.3455 -127.2437 -56.3921 497563.7461 -127.2437 -56.3921
ENERGY: 46000 1635.2663 2434.4958 3228.0913 0.0000 -175701.5907 19977.5370 78.9192 0.0000 30754.0581 -117593.2230 299.0126 -148347.2811 -117552.8909 300.3430 -62.1394 -29.1114 495466.3349 -13.4542 -13.8245
ENERGY: 47000 1637.6080 2404.8461 3235.2241 0.0000 -176019.0970 19876.9481 80.5761 0.0000 30470.3545 -118313.5402 296.2543 -148783.8947 -118276.2893 298.6188 -82.6954 -98.8057 494500.3414 -10.3812 -10.6438
ENERGY: 48000 1635.3176 2390.6739 3212.5780 0.0000 -175718.8628 19998.3569 87.9777 0.0000 30624.1034 -117769.8553 297.7491 -148393.9587 -117726.3386 298.5756 54.5329 108.6338 495791.9377 4.1707 4.7099
ENERGY: 49000 1643.8732 2329.0388 3217.4293 0.0000 -175867.7362 20140.1442 91.1349 0.0000 30704.7275 -117741.3883 298.5330 -148446.1158 -117688.7868 299.7516 42.1843 36.1861 497142.1485 13.2479 13.1257
ENERGY: 50000 1603.4608 2411.2868 3223.7310 0.0000 -176048.5273 20215.6337 93.0261 0.0000 30860.1798 -117641.2091 300.0444 -148501.3889 -117595.8217 299.1402 -75.4867 -12.6951 496798.0957 -9.8285 -9.0240
TCL: Setting parameter constraintScaling to 0
TCL: Running for 5000 steps
ETITLE: TS BOND ANGLE DIHED IMPRP ELECT VDW BOUNDARY MISC KINETIC TOTAL TEMP POTENTIAL TOTAL3 TEMPAVG PRESSURE GPRESSURE VOLUME PRESSAVG GPRESSAVG
ENERGY: 50000 1603.4608 2411.2868 3223.7310 0.0000 -176048.5273 20215.6337 0.0000 0.0000 30858.1168 -117736.2983 300.0244 -148594.4150 -117695.0933 300.0244 -60.6794 -5.2667 496798.0957 -60.6794 -5.2667
ENERGY: 51000 1619.2011 2428.0398 3187.0726 0.0000 -175623.9469 19905.5189 0.0000 0.0000 30809.4816 -117674.6328 299.5515 -148484.1145 -117624.5793 299.9883 -8.9561 75.2865 496892.1349 5.1574 4.8608
ENERGY: 52000 1645.1793 2395.5227 3198.0782 0.0000 -176058.3879 19997.1020 0.0000 0.0000 30993.3881 -117829.1176 301.3396 -148822.5057 -117783.9970 299.4992 8.9239 -39.3341 496135.4045 0.1866 -0.1886
ENERGY: 53000 1604.4347 2441.2531 3207.3253 0.0000 -175882.8351 19930.4529 0.0000 0.0000 30951.9619 -117747.4072 300.9368 -148699.3691 -117698.7996 300.1112 -24.3520 36.1138 495456.9343 -16.8517 -16.6763
ENERGY: 54000 1672.5555 2425.2291 3219.1537 0.0000 -175774.2740 20075.5908 0.0000 0.0000 30707.3229 -117674.4220 298.5582 -148381.7449 -117636.9207 300.5315 -41.9427 39.7452 496247.5188 -2.5744 -3.0041
ENERGY: 55000 1598.0796 2461.6829 3203.7792 0.0000 -175900.0100 19913.9837 0.0000 0.0000 30915.6327 -117806.8521 300.5836 -148722.4848 -117758.8592 299.2625 -7.0207 -17.1427 495570.0410 -7.4697 -7.4641
