Info: SIMULATION PARAMETERS:
Info: TIMESTEP               2
Info: NUMBER OF STEPS        0
Info: STEPS PER CYCLE        10
Info: PERIODIC CELL BASIS 1  72.449 0 0
Info: PERIODIC CELL BASIS 2  0 93.247 0
Info: PERIODIC CELL BASIS 3  0 0 79.185
Info: PERIODIC CELL CENTER   -0.248 -0.156 -0.047
Info: WRAPPING WATERS AROUND PERIODIC BOUNDARIES ON OUTPUT.
Info: WRAPPING ALL CLUSTERS AROUND PERIODIC BOUNDARIES ON OUTPUT.
Info: FIRST LDB TIMESTEP     50
Info: LAST LDB TIMESTEP     -1
Info: HOM BACKGROUND SCALING 1
Info: PME BACKGROUND SCALING 1
Info: MIN ATOMS PER PATCH    40
Info: INITIAL TEMPERATURE    0
Info: CENTER OF MASS MOVING INITIALLY? NO
Info: DIELECTRIC             1
Info: EXCLUDE                SCALED ONE-FOUR
Info: 1-4 ELECTROSTATICS SCALED BY 0.833333
Info: MODIFIED 1-4 VDW PARAMETERS WILL BE USED
Info: NO DCD TRAJECTORY OUTPUT
Info: NO EXTENDED SYSTEM TRAJECTORY OUTPUT
Info: NO VELOCITY DCD OUTPUT
Info: NO FORCE DCD OUTPUT
Info: OUTPUT FILENAME        ../replicas/rep14/equilibration/eq0
Info: NO RESTART FILE
Info: SWITCHING ACTIVE
Info: SWITCHING ON           10
Info: SWITCHING OFF          12
Info: PAIRLIST DISTANCE      13.5
Info: PAIRLIST SHRINK RATE   0.01
Info: PAIRLIST GROW RATE     0.01
Info: PAIRLIST TRIGGER       0.3
Info: PAIRLISTS PER CYCLE    2
Info: PAIRLISTS ENABLED
Info: MARGIN                 0
Info: HYDROGEN GROUP CUTOFF  2.5
Info: PATCH DIMENSION        16
Info: ENERGY OUTPUT STEPS    500
Info: CROSSTERM ENERGY INCLUDED IN DIHEDRAL
Info: TIMING OUTPUT STEPS    5000
Info: PRESSURE OUTPUT STEPS  500
Info: HARMONIC CONSTRAINTS ACTIVE
Info: HARMONIC CONS EXP      2
Info: HARMONIC CONS SCALING  10
Info: CONJUGATE GRADIENT MINIMIZATION ACTIVE
Info: LINE MINIMIZATION GOAL = 0.001
Info: BABY STEP SIZE = 0.01
Info: TINY STEP SIZE = 1e-06
Info: PARTICLE MESH EWALD (PME) ACTIVE
Info: PME TOLERANCE               1e-06
Info: PME EWALD COEFFICIENT       0.257952
Info: PME INTERPOLATION ORDER     4
Info: PME GRID DIMENSIONS         80 96 80
Info: PME MAXIMUM GRID SPACING    1
Info: FULL ELECTROSTATIC EVALUATION FREQUENCY      2
Info: USING VERLET I (r-RESPA) MTS SCHEME.
Info: C1 SPLITTING OF LONG RANGE ELECTROSTATICS
Info: PLACING ATOMS IN PATCHES BY HYDROGEN GROUPS
Info: RIGID BONDS TO HYDROGEN : ALL
Info:         ERROR TOLERANCE : 1e-05
Info:          MAX ITERATIONS : 100
Info: RIGID WATER USING SETTLE ALGORITHM
Info: RANDOM NUMBER SEED     1503250382
Info: USE HYDROGEN BONDS?    NO
Info: Using AMBER format force field!
Info: AMBER PARM FILE        ../build/complex.top
Info: COORDINATE PDB         ../build/complex.pdb
Info: Exclusions in PARM file will be ignored!
Info: SCNB (VDW SCALING)     2
Info: USING ARITHMETIC MEAN TO COMBINE L-J SIGMA PARAMETERS
Info: SUMMARY OF PARAMETERS:
Info: 71 BONDS
Info: 145 ANGLES
Info: 76 DIHEDRAL
Info: 0 IMPROPER
Info: 0 CROSSTERM
Info: 0 VDW
Info: 190 VDW_PAIRS
Info: 0 NBTHOLE_PAIRS
Info: STRUCTURE SUMMARY:
Info: 49394 ATOMS
Info: 49448 BONDS
Info: 8698 ANGLES
Info: 18780 DIHEDRALS
Info: 0 IMPROPERS
Info: 0 CROSSTERMS
Info: 0 EXCLUSIONS
Info: 2336 CONSTRAINTS
Info: 47058 RIGID BONDS
Info: 101124 DEGREES OF FREEDOM
Info: 17225 HYDROGEN GROUPS
Info: 4 ATOMS IN LARGEST HYDROGEN GROUP
Info: 17225 MIGRATION GROUPS
Info: 4 ATOMS IN LARGEST MIGRATION GROUP
Info: TOTAL MASS = 301478 amu
Info: TOTAL CHARGE = 1.00115e-05 e
Info: MASS DENSITY = 0.935846 g/cm^3
Info: ATOM DENSITY = 0.0923345 atoms/A^3
Info: ADDED 70656 IMPLICIT EXCLUSIONS
Info: NONBONDED TABLE R-SQUARED SPACING: 0.0625
Info: NONBONDED TABLE SIZE: 769 POINTS
Info: REMOVING COM VELOCITY 0 0 0
TCL: Minimizing for 100 steps
ETITLE: TS BOND ANGLE DIHED IMPRP ELECT VDW BOUNDARY MISC KINETIC TOTAL TEMP POTENTIAL TOTAL3 TEMPAVG PRESSURE GPRESSURE VOLUME PRESSAVG GPRESSAVG
ENERGY: 0 155.4176 1012.2698 2855.7272 0.0000 -154496.7913 207729.2052 0.0468 0.0000 0.0000 57255.8753 0.0000 57255.8753 57255.8753 0.0000 116350.2532 86546.1670 534946.2959 116350.2532 86546.1670
ENERGY: 20 304.7543 935.7911 2893.4663 0.0000 -158672.9400 17936.6597 143.9454 0.0000 0.0000 -136458.3233 0.0000 -136458.3233 -136458.3233 0.0000 16523.9390 -239.4555 534946.2959 16523.9390 -239.4555
ENERGY: 40 198.7423 799.5724 2896.9273 0.0000 -162811.4537 16417.9535 221.3029 0.0000 0.0000 -142276.9552 0.0000 -142276.9552 -142276.9552 0.0000 15011.2702 -2135.4700 534946.2959 15011.2702 -2135.4700
ENERGY: 60 130.5285 715.3440 2898.2166 0.0000 -167496.1549 15446.7543 315.2796 0.0000 0.0000 -147990.0320 0.0000 -147990.0320 -147990.0320 0.0000 13793.8843 -3799.3980 534946.2959 13793.8843 -3799.3980
ENERGY: 80 431.2747 765.6311 2904.3783 0.0000 -169937.5188 15121.1536 372.0120 0.0000 0.0000 -150343.0692 0.0000 -150343.0692 -150343.0692 0.0000 13270.3335 -4577.2414 534946.2959 13270.3335 -4577.2414
ENERGY: 100 119.3896 710.0605 2905.2589 0.0000 -171259.7186 14991.7862 387.3613 0.0000 0.0000 -152145.8621 0.0000 -152145.8621 -152145.8621 0.0000 13056.2642 -4908.1747 534946.2959 13056.2642 -4908.1747
TCL: Setting parameter constraintScaling to 5.0
TCL: Minimizing for 100 steps
ETITLE: TS BOND ANGLE DIHED IMPRP ELECT VDW BOUNDARY MISC KINETIC TOTAL TEMP POTENTIAL TOTAL3 TEMPAVG PRESSURE GPRESSURE VOLUME PRESSAVG GPRESSAVG
ENERGY: 100 119.3896 710.0605 2905.2589 0.0000 -171259.7186 14991.7862 193.6807 0.0000 0.0000 -152339.5427 0.0000 -152339.5427 -152339.5427 0.0000 13672.7704 -23021.8206 534946.2959 13672.7704 -23021.8206
ENERGY: 120 166.4490 692.2080 2910.8260 0.0000 -172914.7725 14833.3506 281.9273 0.0000 0.0000 -154030.0115 0.0000 -154030.0115 -154030.0115 0.0000 13225.2906 -4913.0026 534946.2959 13225.2906 -4913.0026
ENERGY: 140 225.1292 696.9097 2912.9607 0.0000 -174149.4983 14732.6726 321.1854 0.0000 0.0000 -155260.6408 0.0000 -155260.6408 -155260.6408 0.0000 12997.6285 -5265.6554 534946.2959 12997.6285 -5265.6554
ENERGY: 160 270.2582 684.1586 2923.2915 0.0000 -176284.7797 14758.1189 383.2652 0.0000 0.0000 -157265.6874 0.0000 -157265.6874 -157265.6874 0.0000 12739.5171 -5744.8409 534946.2959 12739.5171 -5744.8409
ENERGY: 180 172.6941 724.9563 2929.2187 0.0000 -179192.8132 15054.2044 478.3461 0.0000 0.0000 -159833.3936 0.0000 -159833.3936 -159833.3936 0.0000 12525.3746 -6233.1542 534946.2959 12525.3746 -6233.1542
ENERGY: 200 239.7196 694.1065 2941.4024 0.0000 -181558.3381 15587.4906 546.3325 0.0000 0.0000 -161549.2864 0.0000 -161549.2864 -161549.2864 0.0000 12582.6774 -6431.0365 534946.2959 12582.6774 -6431.0365
TCL: Setting parameter constraintScaling to 2.5
TCL: Minimizing for 100 steps
ETITLE: TS BOND ANGLE DIHED IMPRP ELECT VDW BOUNDARY MISC KINETIC TOTAL TEMP POTENTIAL TOTAL3 TEMPAVG PRESSURE GPRESSURE VOLUME PRESSAVG GPRESSAVG
ENERGY: 200 239.7196 694.1065 2941.4024 0.0000 -181558.3381 15587.4906 273.1663 0.0000 0.0000 -161822.4526 0.0000 -161822.4526 -161822.4526 0.0000 13229.6653 -25662.1719 534946.2959 13229.6653 -25662.1719
ENERGY: 220 245.2121 676.0651 2932.9751 0.0000 -182071.8433 15473.4812 336.6757 0.0000 0.0000 -162407.4341 0.0000 -162407.4341 -162407.4341 0.0000 12975.3267 -6092.3859 534946.2959 12975.3267 -6092.3859
ENERGY: 240 153.7102 693.8989 2928.7688 0.0000 -182681.1224 15530.1340 346.9425 0.0000 0.0000 -163027.6680 0.0000 -163027.6680 -163027.6680 0.0000 13034.0790 -6137.4963 534946.2959 13034.0790 -6137.4963
ENERGY: 260 232.6540 705.1076 2922.3898 0.0000 -183757.2353 15758.2879 380.1553 0.0000 0.0000 -163758.6407 0.0000 -163758.6407 -163758.6407 0.0000 13013.6381 -6246.8571 534946.2959 13013.6381 -6246.8571
ENERGY: 280 202.3965 704.5054 2917.5636 0.0000 -185467.6784 16243.3994 458.8962 0.0000 0.0000 -164940.9173 0.0000 -164940.9173 -164940.9173 0.0000 13140.3085 -6353.5891 534946.2959 13140.3085 -6353.5891
ENERGY: 300 118.2558 637.1209 2916.5629 0.0000 -186062.9546 16435.3720 482.4454 0.0000 0.0000 -165473.1976 0.0000 -165473.1976 -165473.1976 0.0000 13202.0370 -6350.0492 534946.2959 13202.0370 -6350.0492
TCL: Setting parameter constraintScaling to 1.25
TCL: Minimizing for 100 steps
ETITLE: TS BOND ANGLE DIHED IMPRP ELECT VDW BOUNDARY MISC KINETIC TOTAL TEMP POTENTIAL TOTAL3 TEMPAVG PRESSURE GPRESSURE VOLUME PRESSAVG GPRESSAVG
ENERGY: 300 118.2558 637.1209 2916.5629 0.0000 -186062.9546 16435.3720 241.2227 0.0000 0.0000 -165714.4203 0.0000 -165714.4203 -165714.4203 0.0000 13651.0468 -26356.6729 534946.2959 13651.0468 -26356.6729
ENERGY: 320 275.9211 655.6321 2911.1528 0.0000 -186737.3816 16602.1642 275.3976 0.0000 0.0000 -166017.1137 0.0000 -166017.1137 -166017.1137 0.0000 13632.4258 -5992.1512 534946.2959 13632.4258 -5992.1512
ENERGY: 340 139.9139 629.0409 2910.4045 0.0000 -187415.8008 16830.8668 293.8228 0.0000 0.0000 -166611.7519 0.0000 -166611.7519 -166611.7519 0.0000 13710.7250 -5980.8394 534946.2959 13710.7250 -5980.8394
ENERGY: 360 195.6003 684.1515 2912.7912 0.0000 -188067.3061 17026.5991 325.9343 0.0000 0.0000 -166922.2296 0.0000 -166922.2296 -166922.2296 0.0000 13748.8182 -6034.1549 534946.2959 13748.8182 -6034.1549
ENERGY: 380 236.8472 676.4632 2904.4297 0.0000 -189249.1768 17446.6576 357.1826 0.0000 0.0000 -167627.5965 0.0000 -167627.5965 -167627.5965 0.0000 13812.7988 -6067.2093 534946.2959 13812.7988 -6067.2093
ENERGY: 400 141.7382 658.7811 2906.4713 0.0000 -190184.7263 17806.7078 377.2778 0.0000 0.0000 -168293.7501 0.0000 -168293.7501 -168293.7501 0.0000 14051.1551 -5956.9227 534946.2959 14051.1551 -5956.9227
TCL: Setting parameter constraintScaling to 0.625
TCL: Minimizing for 100 steps
ETITLE: TS BOND ANGLE DIHED IMPRP ELECT VDW BOUNDARY MISC KINETIC TOTAL TEMP POTENTIAL TOTAL3 TEMPAVG PRESSURE GPRESSURE VOLUME PRESSAVG GPRESSAVG
ENERGY: 400 141.7382 658.7811 2906.4713 0.0000 -190184.7263 17806.7078 188.6389 0.0000 0.0000 -168482.3890 0.0000 -168482.3890 -168482.3890 0.0000 14343.2511 -26629.4118 534946.2959 14343.2511 -26629.4118
ENERGY: 420 150.3022 662.6352 2898.3339 0.0000 -190502.3449 17878.8482 210.3642 0.0000 0.0000 -168701.8613 0.0000 -168701.8613 -168701.8613 0.0000 14306.0594 -5735.5911 534946.2959 14306.0594 -5735.5911
ENERGY: 440 198.7516 671.3552 2890.9454 0.0000 -191652.0483 18243.4214 258.0277 0.0000 0.0000 -169389.5470 0.0000 -169389.5470 -169389.5470 0.0000 14348.5911 -5805.8000 534946.2959 14348.5911 -5805.8000
ENERGY: 460 279.7779 700.9791 2888.6670 0.0000 -192807.3096 18692.6310 291.7745 0.0000 0.0000 -169953.4801 0.0000 -169953.4801 -169953.4801 0.0000 14567.7776 -5743.6496 534946.2959 14567.7776 -5743.6496
ENERGY: 480 218.8031 726.0393 2893.4752 0.0000 -193168.3089 18827.2628 301.1022 0.0000 0.0000 -170201.6263 0.0000 -170201.6263 -170201.6263 0.0000 14601.0405 -5753.7430 534946.2959 14601.0405 -5753.7430
ENERGY: 500 186.5663 650.8364 2884.4161 0.0000 -193852.2294 19116.8594 294.6002 0.0000 0.0000 -170718.9510 0.0000 -170718.9510 -170718.9510 0.0000 14797.9428 -5615.6513 534946.2959 14797.9428 -5615.6513
TCL: Setting parameter constraintScaling to 0.3125
TCL: Minimizing for 100 steps
ETITLE: TS BOND ANGLE DIHED IMPRP ELECT VDW BOUNDARY MISC KINETIC TOTAL TEMP POTENTIAL TOTAL3 TEMPAVG PRESSURE GPRESSURE VOLUME PRESSAVG GPRESSAVG
ENERGY: 500 186.5663 650.8364 2884.4161 0.0000 -193852.2294 19116.8594 147.3001 0.0000 0.0000 -170866.2511 0.0000 -170866.2511 -170866.2511 0.0000 14990.5739 -26843.6992 534946.2959 14990.5739 -26843.6992
ENERGY: 520 159.6448 642.2232 2876.3126 0.0000 -194178.1102 19214.0802 160.0848 0.0000 0.0000 -171125.7645 0.0000 -171125.7645 -171125.7645 0.0000 14997.0342 -5452.0852 534946.2959 14997.0342 -5452.0852
ENERGY: 540 163.8027 661.7247 2874.2923 0.0000 -195025.7773 19503.7529 187.1690 0.0000 0.0000 -171635.0356 0.0000 -171635.0356 -171635.0356 0.0000 15075.6285 -5471.6871 534946.2959 15075.6285 -5471.6871
ENERGY: 560 204.9806 694.2710 2877.7237 0.0000 -195359.8943 19638.9005 188.7152 0.0000 0.0000 -171755.3034 0.0000 -171755.3034 -171755.3034 0.0000 15156.2136 -5434.7495 534946.2959 15156.2136 -5434.7495
ENERGY: 580 178.0434 726.4078 2887.7395 0.0000 -196431.5822 20114.3521 197.1495 0.0000 0.0000 -172327.8898 0.0000 -172327.8898 -172327.8898 0.0000 15418.7235 -5287.5659 534946.2959 15418.7235 -5287.5659
ENERGY: 600 158.6405 662.2697 2875.8607 0.0000 -196901.4194 20272.2968 209.5283 0.0000 0.0000 -172722.8235 0.0000 -172722.8235 -172722.8235 0.0000 15485.1803 -5284.2116 534946.2959 15485.1803 -5284.2116
TCL: Setting parameter constraintScaling to 0.15625
TCL: Minimizing for 100 steps
ETITLE: TS BOND ANGLE DIHED IMPRP ELECT VDW BOUNDARY MISC KINETIC TOTAL TEMP POTENTIAL TOTAL3 TEMPAVG PRESSURE GPRESSURE VOLUME PRESSAVG GPRESSAVG
ENERGY: 600 158.6405 662.2697 2875.8607 0.0000 -196901.4194 20272.2968 104.7641 0.0000 0.0000 -172827.5876 0.0000 -172827.5876 -172827.5876 0.0000 15604.9516 -26950.0087 534946.2959 15604.9516 -26950.0087
ENERGY: 620 153.7379 653.7005 2862.4364 0.0000 -197072.8642 20316.1913 111.3381 0.0000 0.0000 -172975.4600 0.0000 -172975.4600 -172975.4600 0.0000 15578.0414 -5201.3011 534946.2959 15578.0414 -5201.3011
ENERGY: 640 178.6521 680.1852 2864.1385 0.0000 -197723.2669 20541.4142 130.3249 0.0000 0.0000 -173328.5520 0.0000 -173328.5520 -173328.5520 0.0000 15605.5653 -5246.0608 534946.2959 15605.5653 -5246.0608
ENERGY: 660 281.6649 747.3453 2865.4720 0.0000 -198437.0943 20798.2537 142.3172 0.0000 0.0000 -173602.0413 0.0000 -173602.0413 -173602.0413 0.0000 15731.6691 -5212.9502 534946.2959 15731.6691 -5212.9502
ENERGY: 680 335.8599 711.8465 2851.2257 0.0000 -199376.5840 21184.6790 153.2393 0.0000 0.0000 -174139.7335 0.0000 -174139.7335 -174139.7335 0.0000 15890.8352 -5148.9727 534946.2959 15890.8352 -5148.9727
ENERGY: 700 169.7671 666.4343 2849.7455 0.0000 -199675.8159 21307.8932 155.3473 0.0000 0.0000 -174526.6285 0.0000 -174526.6285 -174526.6285 0.0000 16003.5780 -5083.1421 534946.2959 16003.5780 -5083.1421
TCL: Setting parameter constraintScaling to 0.078125
TCL: Minimizing for 100 steps
ETITLE: TS BOND ANGLE DIHED IMPRP ELECT VDW BOUNDARY MISC KINETIC TOTAL TEMP POTENTIAL TOTAL3 TEMPAVG PRESSURE GPRESSURE VOLUME PRESSAVG GPRESSAVG
ENERGY: 700 169.7671 666.4343 2849.7455 0.0000 -199675.8159 21307.8932 77.6737 0.0000 0.0000 -174604.3021 0.0000 -174604.3021 -174604.3021 0.0000 16078.3535 -27132.4220 534946.2959 16078.3535 -27132.4220
ENERGY: 720 170.7483 656.8864 2843.1326 0.0000 -199888.1826 21386.0009 79.4682 0.0000 0.0000 -174751.9462 0.0000 -174751.9462 -174751.9462 0.0000 16109.2858 -5002.3839 534946.2959 16109.2858 -5002.3839
ENERGY: 740 160.1587 645.2346 2839.0592 0.0000 -200185.7011 21494.8955 81.5166 0.0000 0.0000 -174964.8366 0.0000 -174964.8366 -174964.8366 0.0000 16163.5435 -4980.6360 534946.2959 16163.5435 -4980.6360
ENERGY: 760 165.8209 648.6042 2841.1103 0.0000 -200479.1751 21583.4625 83.0279 0.0000 0.0000 -175157.1493 0.0000 -175157.1493 -175157.1493 0.0000 16226.4929 -4957.4378 534946.2959 16226.4929 -4957.4378
ENERGY: 780 177.2659 655.7423 2832.9538 0.0000 -201092.1749 21807.5349 89.6240 0.0000 0.0000 -175529.0540 0.0000 -175529.0540 -175529.0540 0.0000 16295.6214 -4951.7480 534946.2959 16295.6214 -4951.7480
ENERGY: 800 162.7979 651.1297 2832.7486 0.0000 -201491.0320 21961.2463 92.9584 0.0000 0.0000 -175790.1511 0.0000 -175790.1511 -175790.1511 0.0000 16390.6831 -4906.0403 534946.2959 16390.6831 -4906.0403
TCL: Setting parameter constraintScaling to 0.0390625
TCL: Minimizing for 100 steps
ETITLE: TS BOND ANGLE DIHED IMPRP ELECT VDW BOUNDARY MISC KINETIC TOTAL TEMP POTENTIAL TOTAL3 TEMPAVG PRESSURE GPRESSURE VOLUME PRESSAVG GPRESSAVG
ENERGY: 800 162.7979 651.1297 2832.7486 0.0000 -201491.0320 21961.2463 46.4792 0.0000 0.0000 -175836.6303 0.0000 -175836.6303 -175836.6303 0.0000 16432.4839 -27215.0691 534946.2959 16432.4839 -27215.0691
ENERGY: 820 163.6959 648.0076 2829.7386 0.0000 -201609.0806 22008.4969 46.9764 0.0000 0.0000 -175912.1651 0.0000 -175912.1651 -175912.1651 0.0000 16450.9807 -4859.3662 534946.2959 16450.9807 -4859.3662
ENERGY: 840 175.0569 662.3541 2832.7867 0.0000 -201939.4908 22136.3961 48.5417 0.0000 0.0000 -176084.3553 0.0000 -176084.3553 -176084.3553 0.0000 16518.2434 -4831.6671 534946.2959 16518.2434 -4831.6671
ENERGY: 860 192.6403 653.8277 2826.6978 0.0000 -202319.3941 22285.2868 50.5662 0.0000 0.0000 -176310.3753 0.0000 -176310.3753 -176310.3753 0.0000 16562.8030 -4828.4595 534946.2959 16562.8030 -4828.4595
ENERGY: 880 369.0748 698.9952 2822.5178 0.0000 -203510.9037 22786.6603 56.9834 0.0000 0.0000 -176776.6723 0.0000 -176776.6723 -176776.6723 0.0000 16791.4459 -4733.5529 534946.2959 16791.4459 -4733.5529
ENERGY: 900 186.5019 657.5944 2820.0422 0.0000 -203475.9402 22759.9239 56.3491 0.0000 0.0000 -176995.5287 0.0000 -176995.5287 -176995.5287 0.0000 16821.9318 -4704.3328 534946.2959 16821.9318 -4704.3328
TCL: Setting parameter constraintScaling to 0.01953125
TCL: Minimizing for 100 steps
ETITLE: TS BOND ANGLE DIHED IMPRP ELECT VDW BOUNDARY MISC KINETIC TOTAL TEMP POTENTIAL TOTAL3 TEMPAVG PRESSURE GPRESSURE VOLUME PRESSAVG GPRESSAVG
ENERGY: 900 186.5019 657.5944 2820.0422 0.0000 -203475.9402 22759.9239 28.1746 0.0000 0.0000 -177023.7033 0.0000 -177023.7033 -177023.7033 0.0000 16845.6076 -27276.0637 534946.2959 16845.6076 -27276.0637
ENERGY: 920 174.0503 653.5666 2818.4931 0.0000 -203555.9482 22791.8884 28.4118 0.0000 0.0000 -177089.5379 0.0000 -177089.5379 -177089.5379 0.0000 16868.5790 -4670.4236 534946.2959 16868.5790 -4670.4236
ENERGY: 940 164.0991 651.2990 2818.2292 0.0000 -203640.3970 22826.0726 28.6708 0.0000 0.0000 -177152.0265 0.0000 -177152.0265 -177152.0265 0.0000 16884.2302 -4663.6256 534946.2959 16884.2302 -4663.6256
ENERGY: 960 164.5137 651.1476 2814.9771 0.0000 -204115.8802 23029.1786 30.0920 0.0000 0.0000 -177425.9711 0.0000 -177425.9711 -177425.9711 0.0000 16976.4310 -4624.6469 534946.2959 16976.4310 -4624.6469
ENERGY: 980 293.8382 704.8166 2813.1807 0.0000 -204632.9680 23260.3313 31.5008 0.0000 0.0000 -177529.3004 0.0000 -177529.3004 -177529.3004 0.0000 17090.3671 -4576.7117 534946.2959 17090.3671 -4576.7117
ENERGY: 1000 168.8460 653.9008 2811.5021 0.0000 -204951.4351 23394.7085 32.5152 0.0000 0.0000 -177889.9625 0.0000 -177889.9625 -177889.9625 0.0000 17171.4492 -4530.5299 534946.2959 17171.4492 -4530.5299
TCL: Setting parameter constraintScaling to 0
TCL: Minimizing for 5000 steps
ETITLE: TS BOND ANGLE DIHED IMPRP ELECT VDW BOUNDARY MISC KINETIC TOTAL TEMP POTENTIAL TOTAL3 TEMPAVG PRESSURE GPRESSURE VOLUME PRESSAVG GPRESSAVG
ENERGY: 1000 168.8460 653.9008 2811.5021 0.0000 -204951.4351 23394.7085 0.0000 0.0000 0.0000 -177922.4777 0.0000 -177922.4777 -177922.4777 0.0000 17197.4796 -27278.6116 534946.2959 17197.4796 -27278.6116
ENERGY: 2000 170.9530 659.1117 2800.5575 0.0000 -214686.0464 27680.5754 0.0000 0.0000 0.0000 -183374.8487 0.0000 -183374.8487 -183374.8487 0.0000 19447.7125 -3355.3607 534946.2959 19447.7125 -3355.3607
ENERGY: 3000 174.3851 669.2227 2794.9023 0.0000 -217529.9101 28882.5396 0.0000 0.0000 0.0000 -185008.8603 0.0000 -185008.8603 -185008.8603 0.0000 20106.8572 -2718.2432 534946.2959 20106.8572 -2718.2432
ENERGY: 4000 166.0534 666.7184 2789.1040 0.0000 -218618.5550 29317.0245 0.0000 0.0000 0.0000 -185679.6546 0.0000 -185679.6546 -185679.6546 0.0000 20340.8046 -2595.2466 534946.2959 20340.8046 -2595.2466
ENERGY: 5000 165.0986 666.4941 2785.2290 0.0000 -219307.2963 29642.2292 0.0000 0.0000 0.0000 -186048.2455 0.0000 -186048.2455 -186048.2455 0.0000 20506.5038 -2502.1866 534946.2959 20506.5038 -2502.1866
ENERGY: 6000 167.2015 664.5695 2785.2172 0.0000 -219792.4710 29850.3037 0.0000 0.0000 0.0000 -186325.1791 0.0000 -186325.1791 -186325.1791 0.0000 20613.0118 -2445.8642 534946.2959 20613.0118 -2445.8642
