Info: SIMULATION PARAMETERS:
Info: TIMESTEP               2
Info: NUMBER OF STEPS        0
Info: STEPS PER CYCLE        10
Info: PERIODIC CELL BASIS 1  72.449 0 0
Info: PERIODIC CELL BASIS 2  0 93.247 0
Info: PERIODIC CELL BASIS 3  0 0 79.185
Info: PERIODIC CELL CENTER   -0.248 -0.156 -0.047
Info: WRAPPING WATERS AROUND PERIODIC BOUNDARIES ON OUTPUT.
Info: WRAPPING ALL CLUSTERS AROUND PERIODIC BOUNDARIES ON OUTPUT.
Info: FIRST LDB TIMESTEP     50
Info: LAST LDB TIMESTEP     -1
Info: HOM BACKGROUND SCALING 1
Info: PME BACKGROUND SCALING 1
Info: MIN ATOMS PER PATCH    40
Info: INITIAL TEMPERATURE    0
Info: CENTER OF MASS MOVING INITIALLY? NO
Info: DIELECTRIC             1
Info: EXCLUDE                SCALED ONE-FOUR
Info: 1-4 ELECTROSTATICS SCALED BY 0.833333
Info: MODIFIED 1-4 VDW PARAMETERS WILL BE USED
Info: NO DCD TRAJECTORY OUTPUT
Info: NO EXTENDED SYSTEM TRAJECTORY OUTPUT
Info: NO VELOCITY DCD OUTPUT
Info: NO FORCE DCD OUTPUT
Info: OUTPUT FILENAME        ../replicas/rep11/equilibration/eq0
Info: NO RESTART FILE
Info: SWITCHING ACTIVE
Info: SWITCHING ON           10
Info: SWITCHING OFF          12
Info: PAIRLIST DISTANCE      13.5
Info: PAIRLIST SHRINK RATE   0.01
Info: PAIRLIST GROW RATE     0.01
Info: PAIRLIST TRIGGER       0.3
Info: PAIRLISTS PER CYCLE    2
Info: PAIRLISTS ENABLED
Info: MARGIN                 0
Info: HYDROGEN GROUP CUTOFF  2.5
Info: PATCH DIMENSION        16
Info: ENERGY OUTPUT STEPS    500
Info: CROSSTERM ENERGY INCLUDED IN DIHEDRAL
Info: TIMING OUTPUT STEPS    5000
Info: PRESSURE OUTPUT STEPS  500
Info: HARMONIC CONSTRAINTS ACTIVE
Info: HARMONIC CONS EXP      2
Info: HARMONIC CONS SCALING  10
Info: CONJUGATE GRADIENT MINIMIZATION ACTIVE
Info: LINE MINIMIZATION GOAL = 0.001
Info: BABY STEP SIZE = 0.01
Info: TINY STEP SIZE = 1e-06
Info: PARTICLE MESH EWALD (PME) ACTIVE
Info: PME TOLERANCE               1e-06
Info: PME EWALD COEFFICIENT       0.257952
Info: PME INTERPOLATION ORDER     4
Info: PME GRID DIMENSIONS         80 96 80
Info: PME MAXIMUM GRID SPACING    1
Info: FULL ELECTROSTATIC EVALUATION FREQUENCY      2
Info: USING VERLET I (r-RESPA) MTS SCHEME.
Info: C1 SPLITTING OF LONG RANGE ELECTROSTATICS
Info: PLACING ATOMS IN PATCHES BY HYDROGEN GROUPS
Info: RIGID BONDS TO HYDROGEN : ALL
Info:         ERROR TOLERANCE : 1e-05
Info:          MAX ITERATIONS : 100
Info: RIGID WATER USING SETTLE ALGORITHM
Info: RANDOM NUMBER SEED     1503691733
Info: USE HYDROGEN BONDS?    NO
Info: Using AMBER format force field!
Info: AMBER PARM FILE        ../build/complex.top
Info: COORDINATE PDB         ../build/complex.pdb
Info: Exclusions in PARM file will be ignored!
Info: SCNB (VDW SCALING)     2
Info: USING ARITHMETIC MEAN TO COMBINE L-J SIGMA PARAMETERS
Info: SUMMARY OF PARAMETERS:
Info: 71 BONDS
Info: 145 ANGLES
Info: 76 DIHEDRAL
Info: 0 IMPROPER
Info: 0 CROSSTERM
Info: 0 VDW
Info: 190 VDW_PAIRS
Info: 0 NBTHOLE_PAIRS
Info: STRUCTURE SUMMARY:
Info: 49394 ATOMS
Info: 49448 BONDS
Info: 8698 ANGLES
Info: 18780 DIHEDRALS
Info: 0 IMPROPERS
Info: 0 CROSSTERMS
Info: 0 EXCLUSIONS
Info: 2336 CONSTRAINTS
Info: 47058 RIGID BONDS
Info: 101124 DEGREES OF FREEDOM
Info: 17225 HYDROGEN GROUPS
Info: 4 ATOMS IN LARGEST HYDROGEN GROUP
Info: 17225 MIGRATION GROUPS
Info: 4 ATOMS IN LARGEST MIGRATION GROUP
Info: TOTAL MASS = 301478 amu
Info: TOTAL CHARGE = 1.00115e-05 e
Info: MASS DENSITY = 0.935846 g/cm^3
Info: ATOM DENSITY = 0.0923345 atoms/A^3
Info: ADDED 70656 IMPLICIT EXCLUSIONS
Info: NONBONDED TABLE R-SQUARED SPACING: 0.0625
Info: NONBONDED TABLE SIZE: 769 POINTS
Info: REMOVING COM VELOCITY 0 0 0
TCL: Minimizing for 100 steps
ETITLE: TS BOND ANGLE DIHED IMPRP ELECT VDW BOUNDARY MISC KINETIC TOTAL TEMP POTENTIAL TOTAL3 TEMPAVG PRESSURE GPRESSURE VOLUME PRESSAVG GPRESSAVG
ENERGY: 0 155.4176 1012.2698 2855.7272 0.0000 -154496.7911 207729.2052 0.0468 0.0000 0.0000 57255.8755 0.0000 57255.8755 57255.8755 0.0000 116350.2532 86546.1670 534946.2959 116350.2532 86546.1670
ENERGY: 20 304.7538 935.7910 2893.4663 0.0000 -158672.9395 17936.6599 143.9454 0.0000 0.0000 -136458.3231 0.0000 -136458.3231 -136458.3231 0.0000 16523.9393 -239.4552 534946.2959 16523.9393 -239.4552
ENERGY: 40 198.7432 799.5725 2896.9273 0.0000 -162811.4543 16417.9533 221.3030 0.0000 0.0000 -142276.9549 0.0000 -142276.9549 -142276.9549 0.0000 15011.2700 -2135.4702 534946.2959 15011.2700 -2135.4702
ENERGY: 60 130.5284 715.3440 2898.2166 0.0000 -167496.1571 15446.7539 315.2796 0.0000 0.0000 -147990.0346 0.0000 -147990.0346 -147990.0346 0.0000 13793.8837 -3799.3987 534946.2959 13793.8837 -3799.3987
ENERGY: 80 431.2742 765.6312 2904.3784 0.0000 -169937.5214 15121.1534 372.0120 0.0000 0.0000 -150343.0722 0.0000 -150343.0722 -150343.0722 0.0000 13270.3326 -4577.2427 534946.2959 13270.3326 -4577.2427
ENERGY: 100 119.3891 710.0605 2905.2590 0.0000 -171259.7216 14991.7860 387.3614 0.0000 0.0000 -152145.8657 0.0000 -152145.8657 -152145.8657 0.0000 13056.2636 -4908.1756 534946.2959 13056.2636 -4908.1756
TCL: Setting parameter constraintScaling to 5.0
TCL: Minimizing for 100 steps
ETITLE: TS BOND ANGLE DIHED IMPRP ELECT VDW BOUNDARY MISC KINETIC TOTAL TEMP POTENTIAL TOTAL3 TEMPAVG PRESSURE GPRESSURE VOLUME PRESSAVG GPRESSAVG
ENERGY: 100 119.3891 710.0605 2905.2590 0.0000 -171259.7216 14991.7860 193.6807 0.0000 0.0000 -152339.5464 0.0000 -152339.5464 -152339.5464 0.0000 13672.7699 -23021.8218 534946.2959 13672.7699 -23021.8218
ENERGY: 120 108.8874 687.5856 2912.9269 0.0000 -172865.8697 14798.2712 281.1914 0.0000 0.0000 -154077.0072 0.0000 -154077.0072 -154077.0072 0.0000 13218.2569 -4906.0128 534946.2959 13218.2569 -4906.0128
ENERGY: 140 309.4888 708.8772 2913.8027 0.0000 -174236.5669 14731.4871 326.6366 0.0000 0.0000 -155246.2746 0.0000 -155246.2746 -155246.2746 0.0000 12971.5358 -5303.2212 534946.2959 12971.5358 -5303.2212
ENERGY: 160 264.9982 683.0436 2923.1600 0.0000 -176273.8799 14757.2495 382.8352 0.0000 0.0000 -157262.5934 0.0000 -157262.5934 -157262.5934 0.0000 12741.1435 -5736.1132 534946.2959 12741.1435 -5736.1132
ENERGY: 180 269.0511 744.0916 2928.5658 0.0000 -178994.2455 15023.3210 473.2421 0.0000 0.0000 -159555.9740 0.0000 -159555.9740 -159555.9740 0.0000 12521.6679 -6217.0346 534946.2959 12521.6679 -6217.0346
ENERGY: 200 238.7410 694.1093 2941.3526 0.0000 -181555.4668 15586.8664 546.2519 0.0000 0.0000 -161548.1457 0.0000 -161548.1457 -161548.1457 0.0000 12582.6332 -6423.5825 534946.2959 12582.6332 -6423.5825
TCL: Setting parameter constraintScaling to 2.5
TCL: Minimizing for 100 steps
ETITLE: TS BOND ANGLE DIHED IMPRP ELECT VDW BOUNDARY MISC KINETIC TOTAL TEMP POTENTIAL TOTAL3 TEMPAVG PRESSURE GPRESSURE VOLUME PRESSAVG GPRESSAVG
ENERGY: 200 238.7410 694.1093 2941.3526 0.0000 -181555.4668 15586.8664 273.1260 0.0000 0.0000 -161821.2716 0.0000 -161821.2716 -161821.2716 0.0000 13229.5219 -25654.3216 534946.2959 13229.5219 -25654.3216
ENERGY: 220 245.9267 677.4251 2932.9999 0.0000 -182075.2480 15471.7736 337.5691 0.0000 0.0000 -162409.5538 0.0000 -162409.5538 -162409.5538 0.0000 12971.8546 -6088.9256 534946.2959 12971.8546 -6088.9256
ENERGY: 240 154.5104 693.8672 2928.6928 0.0000 -182681.5842 15529.3870 347.1465 0.0000 0.0000 -163027.9803 0.0000 -163027.9803 -163027.9803 0.0000 13033.0212 -6131.3536 534946.2959 13033.0212 -6131.3536
ENERGY: 260 177.1913 683.1987 2920.2812 0.0000 -184291.2123 15886.7573 398.7300 0.0000 0.0000 -164225.0537 0.0000 -164225.0537 -164225.0537 0.0000 13054.5748 -6273.1567 534946.2959 13054.5748 -6273.1567
ENERGY: 280 169.4209 701.0356 2917.6196 0.0000 -185425.9530 16230.3768 454.7923 0.0000 0.0000 -164952.7078 0.0000 -164952.7078 -164952.7078 0.0000 13144.3562 -6337.1694 534946.2959 13144.3562 -6337.1694
ENERGY: 300 126.6659 639.5806 2916.2597 0.0000 -186097.7517 16447.2279 481.3885 0.0000 0.0000 -165486.6291 0.0000 -165486.6291 -165486.6291 0.0000 13208.4362 -6341.4574 534946.2959 13208.4362 -6341.4574
TCL: Setting parameter constraintScaling to 1.25
TCL: Minimizing for 100 steps
ETITLE: TS BOND ANGLE DIHED IMPRP ELECT VDW BOUNDARY MISC KINETIC TOTAL TEMP POTENTIAL TOTAL3 TEMPAVG PRESSURE GPRESSURE VOLUME PRESSAVG GPRESSAVG
ENERGY: 300 126.6659 639.5806 2916.2597 0.0000 -186097.7517 16447.2279 240.6942 0.0000 0.0000 -165727.3234 0.0000 -165727.3234 -165727.3234 0.0000 13656.8034 -26351.7846 534946.2959 13656.8034 -26351.7846
ENERGY: 320 132.2355 624.6043 2911.1443 0.0000 -186669.1773 16581.1446 272.7884 0.0000 0.0000 -166147.2603 0.0000 -166147.2603 -166147.2603 0.0000 13630.3202 -5972.9696 534946.2959 13630.3202 -5972.9696
ENERGY: 340 207.7342 644.7745 2912.2264 0.0000 -187463.7011 16837.8948 301.9119 0.0000 0.0000 -166559.1594 0.0000 -166559.1594 -166559.1594 0.0000 13612.0746 -6041.9932 534946.2959 13612.0746 -6041.9932
ENERGY: 360 300.9967 691.7531 2907.0061 0.0000 -189100.3086 17407.9349 364.8564 0.0000 0.0000 -167427.7613 0.0000 -167427.7613 -167427.7613 0.0000 13892.3884 -6002.6089 534946.2959 13892.3884 -6002.6089
ENERGY: 380 180.9527 658.2363 2901.4429 0.0000 -189977.3535 17756.9701 385.2436 0.0000 0.0000 -168094.5079 0.0000 -168094.5079 -168094.5079 0.0000 13982.0935 -5983.6812 534946.2959 13982.0935 -5983.6812
ENERGY: 400 139.6655 634.3129 2899.5063 0.0000 -190546.7674 17962.7864 398.4573 0.0000 0.0000 -168512.0391 0.0000 -168512.0391 -168512.0391 0.0000 14133.5871 -5917.4266 534946.2959 14133.5871 -5917.4266
TCL: Setting parameter constraintScaling to 0.625
TCL: Minimizing for 100 steps
ETITLE: TS BOND ANGLE DIHED IMPRP ELECT VDW BOUNDARY MISC KINETIC TOTAL TEMP POTENTIAL TOTAL3 TEMPAVG PRESSURE GPRESSURE VOLUME PRESSAVG GPRESSAVG
ENERGY: 400 139.6655 634.3129 2899.5063 0.0000 -190546.7674 17962.7864 199.2287 0.0000 0.0000 -168711.2677 0.0000 -168711.2677 -168711.2677 0.0000 14433.3667 -26613.5623 534946.2959 14433.3667 -26613.5623
ENERGY: 420 146.9996 627.0578 2895.3308 0.0000 -190950.3001 18052.6321 220.7807 0.0000 0.0000 -169007.4991 0.0000 -169007.4991 -169007.4991 0.0000 14360.5556 -5717.9721 534946.2959 14360.5556 -5717.9721
ENERGY: 440 145.5132 625.1162 2892.4430 0.0000 -191447.9380 18209.3449 235.0541 0.0000 0.0000 -169340.4666 0.0000 -169340.4666 -169340.4666 0.0000 14392.8895 -5731.7686 534946.2959 14392.8895 -5731.7686
ENERGY: 460 194.9033 682.3742 2892.8484 0.0000 -192658.8813 18629.8149 272.1952 0.0000 0.0000 -169986.7453 0.0000 -169986.7453 -169986.7453 0.0000 14653.2739 -5668.1263 534946.2959 14653.2739 -5668.1263
ENERGY: 480 151.7421 638.4059 2883.5950 0.0000 -192978.9478 18759.7644 275.0704 0.0000 0.0000 -170270.3699 0.0000 -170270.3699 -170270.3699 0.0000 14633.5894 -5677.9654 534946.2959 14633.5894 -5677.9654
ENERGY: 500 251.1470 681.9087 2884.3591 0.0000 -194144.8658 19208.6562 304.1856 0.0000 0.0000 -170814.6093 0.0000 -170814.6093 -170814.6093 0.0000 14815.1098 -5624.0536 534946.2959 14815.1098 -5624.0536
TCL: Setting parameter constraintScaling to 0.3125
TCL: Minimizing for 100 steps
ETITLE: TS BOND ANGLE DIHED IMPRP ELECT VDW BOUNDARY MISC KINETIC TOTAL TEMP POTENTIAL TOTAL3 TEMPAVG PRESSURE GPRESSURE VOLUME PRESSAVG GPRESSAVG
ENERGY: 500 251.1470 681.9087 2884.3591 0.0000 -194144.8658 19208.6562 152.0928 0.0000 0.0000 -170966.7021 0.0000 -170966.7021 -170966.7021 0.0000 15009.8048 -26884.0245 534946.2959 15009.8048 -26884.0245
ENERGY: 520 146.7434 639.6458 2877.4239 0.0000 -194281.9759 19256.2760 155.5489 0.0000 0.0000 -171206.3378 0.0000 -171206.3378 -171206.3378 0.0000 15035.9243 -5418.5273 534946.2959 15035.9243 -5418.5273
ENERGY: 540 189.5612 679.2740 2869.2746 0.0000 -195011.3289 19513.0838 177.9303 0.0000 0.0000 -171582.2049 0.0000 -171582.2049 -171582.2049 0.0000 15121.3043 -5418.6904 534946.2959 15121.3043 -5418.6904
ENERGY: 560 154.7247 648.7011 2870.0978 0.0000 -195295.5478 19612.6377 187.2773 0.0000 0.0000 -171822.1092 0.0000 -171822.1092 -171822.1092 0.0000 15147.2350 -5423.2076 534946.2959 15147.2350 -5423.2076
ENERGY: 580 165.0913 657.5071 2872.2528 0.0000 -195949.7150 19870.0230 192.8894 0.0000 0.0000 -172191.9513 0.0000 -172191.9513 -172191.9513 0.0000 15317.4303 -5339.7146 534946.2959 15317.4303 -5339.7146
ENERGY: 600 160.3652 677.9699 2874.1839 0.0000 -196986.3499 20311.7122 208.0036 0.0000 0.0000 -172754.1152 0.0000 -172754.1152 -172754.1152 0.0000 15475.8086 -5282.4688 534946.2959 15475.8086 -5282.4688
TCL: Setting parameter constraintScaling to 0.15625
TCL: Minimizing for 100 steps
ETITLE: TS BOND ANGLE DIHED IMPRP ELECT VDW BOUNDARY MISC KINETIC TOTAL TEMP POTENTIAL TOTAL3 TEMPAVG PRESSURE GPRESSURE VOLUME PRESSAVG GPRESSAVG
ENERGY: 600 160.3652 677.9699 2874.1839 0.0000 -196986.3499 20311.7122 104.0018 0.0000 0.0000 -172858.1170 0.0000 -172858.1170 -172858.1170 0.0000 15595.0174 -26973.8899 534946.2959 15595.0174 -26973.8899
ENERGY: 620 157.2884 651.2116 2864.5384 0.0000 -197184.9411 20348.6491 111.2418 0.0000 0.0000 -173052.0118 0.0000 -173052.0118 -173052.0118 0.0000 15593.1535 -5193.0755 534946.2959 15593.1535 -5193.0755
ENERGY: 640 183.1391 708.9070 2858.9967 0.0000 -197760.8392 20574.3230 127.2452 0.0000 0.0000 -173308.2282 0.0000 -173308.2282 -173308.2282 0.0000 15634.5815 -5214.2672 534946.2959 15634.5815 -5214.2672
ENERGY: 660 171.1425 676.2772 2855.1826 0.0000 -198121.0619 20686.6708 133.0439 0.0000 0.0000 -173598.7449 0.0000 -173598.7449 -173598.7449 0.0000 15702.9377 -5196.4259 534946.2959 15702.9377 -5196.4259
ENERGY: 680 158.1333 658.3538 2858.2911 0.0000 -198330.8666 20758.1481 129.2264 0.0000 0.0000 -173768.7139 0.0000 -173768.7139 -173768.7139 0.0000 15757.6247 -5158.8187 534946.2959 15757.6247 -5158.8187
ENERGY: 700 181.3778 694.3686 2867.5500 0.0000 -198841.4480 20988.6268 130.0862 0.0000 0.0000 -173979.4385 0.0000 -173979.4385 -173979.4385 0.0000 15926.3204 -5057.2922 534946.2959 15926.3204 -5057.2922
TCL: Setting parameter constraintScaling to 0.078125
TCL: Minimizing for 100 steps
ETITLE: TS BOND ANGLE DIHED IMPRP ELECT VDW BOUNDARY MISC KINETIC TOTAL TEMP POTENTIAL TOTAL3 TEMPAVG PRESSURE GPRESSURE VOLUME PRESSAVG GPRESSAVG
ENERGY: 700 181.3778 694.3686 2867.5500 0.0000 -198841.4480 20988.6268 65.0431 0.0000 0.0000 -174044.4816 0.0000 -174044.4816 -174044.4816 0.0000 15994.8647 -27013.9948 534946.2959 15994.8647 -27013.9948
ENERGY: 720 154.6760 650.5183 2851.0228 0.0000 -199035.5004 21019.6128 69.1931 0.0000 0.0000 -174290.4773 0.0000 -174290.4773 -174290.4773 0.0000 15958.8855 -5040.5223 534946.2959 15958.8855 -5040.5223
ENERGY: 740 264.5492 726.2078 2852.2721 0.0000 -199523.5978 21231.4225 78.6772 0.0000 0.0000 -174370.4689 0.0000 -174370.4689 -174370.4689 0.0000 15959.3645 -5093.5832 534946.2959 15959.3645 -5093.5832
ENERGY: 760 170.5902 677.3335 2844.7185 0.0000 -199547.1280 21216.9202 77.9446 0.0000 0.0000 -174559.6211 0.0000 -174559.6211 -174559.6211 0.0000 16002.8277 -5059.4220 534946.2959 16002.8277 -5059.4220
ENERGY: 780 167.1288 668.5806 2845.3985 0.0000 -199672.9159 21236.4499 76.6927 0.0000 0.0000 -174678.6655 0.0000 -174678.6655 -174678.6655 0.0000 16032.7909 -5039.6821 534946.2959 16032.7909 -5039.6821
ENERGY: 800 173.8980 692.8497 2856.0534 0.0000 -200153.5937 21449.1620 78.0066 0.0000 0.0000 -174903.6239 0.0000 -174903.6239 -174903.6239 0.0000 16186.5247 -4949.4490 534946.2959 16186.5247 -4949.4490
TCL: Setting parameter constraintScaling to 0.0390625
TCL: Minimizing for 100 steps
ETITLE: TS BOND ANGLE DIHED IMPRP ELECT VDW BOUNDARY MISC KINETIC TOTAL TEMP POTENTIAL TOTAL3 TEMPAVG PRESSURE GPRESSURE VOLUME PRESSAVG GPRESSAVG
ENERGY: 800 173.8980 692.8497 2856.0534 0.0000 -200153.5937 21449.1620 39.0033 0.0000 0.0000 -174942.6272 0.0000 -174942.6272 -174942.6272 0.0000 16224.6127 -27098.3955 534946.2959 16224.6127 -27098.3955
ENERGY: 820 216.0242 708.6195 2837.7484 0.0000 -200462.0305 21542.2110 42.4518 0.0000 0.0000 -175114.9757 0.0000 -175114.9757 -175114.9757 0.0000 16211.7627 -4961.1542 534946.2959 16211.7627 -4961.1542
ENERGY: 840 176.7842 683.1357 2838.2247 0.0000 -200704.5756 21648.2119 44.3662 0.0000 0.0000 -175313.8528 0.0000 -175313.8528 -175313.8528 0.0000 16230.3348 -4957.1798 534946.2959 16230.3348 -4957.1798
ENERGY: 860 181.2205 681.6078 2835.8512 0.0000 -201121.8044 21803.2492 46.8366 0.0000 0.0000 -175573.0392 0.0000 -175573.0392 -175573.0392 0.0000 16312.2684 -4930.8351 534946.2959 16312.2684 -4930.8351
ENERGY: 880 181.2556 669.7589 2833.2351 0.0000 -201455.2666 21906.8021 47.4851 0.0000 0.0000 -175816.7297 0.0000 -175816.7297 -175816.7297 0.0000 16382.1979 -4900.1939 534946.2959 16382.1979 -4900.1939
ENERGY: 900 167.9066 668.1904 2836.4856 0.0000 -201905.8996 22119.8163 48.6677 0.0000 0.0000 -176064.8329 0.0000 -176064.8329 -176064.8329 0.0000 16527.7091 -4813.9068 534946.2959 16527.7091 -4813.9068
TCL: Setting parameter constraintScaling to 0.01953125
TCL: Minimizing for 100 steps
ETITLE: TS BOND ANGLE DIHED IMPRP ELECT VDW BOUNDARY MISC KINETIC TOTAL TEMP POTENTIAL TOTAL3 TEMPAVG PRESSURE GPRESSURE VOLUME PRESSAVG GPRESSAVG
ENERGY: 900 167.9066 668.1904 2836.4856 0.0000 -201905.8996 22119.8163 24.3338 0.0000 0.0000 -176089.1667 0.0000 -176089.1667 -176089.1667 0.0000 16549.3969 -27195.2233 534946.2959 16549.3969 -27195.2233
ENERGY: 920 163.6679 658.8380 2826.3488 0.0000 -202126.3218 22190.3207 25.3130 0.0000 0.0000 -176261.8334 0.0000 -176261.8334 -176261.8334 0.0000 16562.5307 -4807.7236 534946.2959 16562.5307 -4807.7236
ENERGY: 940 179.7616 669.6540 2824.1242 0.0000 -202574.2959 22374.2030 26.7263 0.0000 0.0000 -176499.8268 0.0000 -176499.8268 -176499.8268 0.0000 16639.9552 -4779.8994 534946.2959 16639.9552 -4779.8994
ENERGY: 960 165.8650 660.3331 2821.6414 0.0000 -202882.8627 22495.4500 27.5152 0.0000 0.0000 -176712.0579 0.0000 -176712.0579 -176712.0579 0.0000 16702.9154 -4747.8807 534946.2959 16702.9154 -4747.8807
ENERGY: 980 174.5797 658.7309 2823.0547 0.0000 -203251.2243 22656.6017 27.9248 0.0000 0.0000 -176910.3325 0.0000 -176910.3325 -176910.3325 0.0000 16813.5490 -4683.2919 534946.2959 16813.5490 -4683.2919
ENERGY: 1000 167.9489 667.0696 2822.5853 0.0000 -204249.0028 23124.2317 30.5499 0.0000 0.0000 -177436.6175 0.0000 -177436.6175 -177436.6175 0.0000 17059.0210 -4559.0370 534946.2959 17059.0210 -4559.0370
TCL: Setting parameter constraintScaling to 0
TCL: Minimizing for 5000 steps
ETITLE: TS BOND ANGLE DIHED IMPRP ELECT VDW BOUNDARY MISC KINETIC TOTAL TEMP POTENTIAL TOTAL3 TEMPAVG PRESSURE GPRESSURE VOLUME PRESSAVG GPRESSAVG
ENERGY: 1000 167.9489 667.0696 2822.5853 0.0000 -204249.0028 23124.2317 0.0000 0.0000 0.0000 -177467.1674 0.0000 -177467.1674 -177467.1674 0.0000 17084.2400 -27223.7741 534946.2959 17084.2400 -27223.7741
ENERGY: 2000 171.6052 663.5538 2803.4046 0.0000 -214325.8684 27705.1626 0.0000 0.0000 0.0000 -182982.1422 0.0000 -182982.1422 -182982.1422 0.0000 19484.9140 -3259.3762 534946.2959 19484.9140 -3259.3762
ENERGY: 3000 169.8927 668.9891 2794.8158 0.0000 -217345.4270 28846.4433 0.0000 0.0000 0.0000 -184865.2860 0.0000 -184865.2860 -184865.2860 0.0000 20084.4108 -2989.5860 534946.2959 20084.4108 -2989.5860
ENERGY: 4000 176.0191 669.7838 2788.9203 0.0000 -218815.8286 29445.8131 0.0000 0.0000 0.0000 -185735.2923 0.0000 -185735.2923 -185735.2923 0.0000 20404.5312 -2819.4372 534946.2959 20404.5312 -2819.4372
ENERGY: 5000 197.8065 670.0881 2789.6825 0.0000 -219434.8380 29660.2630 0.0000 0.0000 0.0000 -186116.9978 0.0000 -186116.9978 -186116.9978 0.0000 20510.9884 -2771.3737 534946.2959 20510.9884 -2771.3737
ENERGY: 6000 165.8561 668.5404 2789.7132 0.0000 -219893.7266 29832.7482 0.0000 0.0000 0.0000 -186436.8687 0.0000 -186436.8687 -186436.8687 0.0000 20608.0264 -2717.7021 534946.2959 20608.0264 -2717.7021
