Info: SIMULATION PARAMETERS:
Info: TIMESTEP               2
Info: NUMBER OF STEPS        0
Info: STEPS PER CYCLE        10
Info: PERIODIC CELL BASIS 1  72.449 0 0
Info: PERIODIC CELL BASIS 2  0 93.247 0
Info: PERIODIC CELL BASIS 3  0 0 79.185
Info: PERIODIC CELL CENTER   -0.248 -0.156 -0.047
Info: WRAPPING WATERS AROUND PERIODIC BOUNDARIES ON OUTPUT.
Info: WRAPPING ALL CLUSTERS AROUND PERIODIC BOUNDARIES ON OUTPUT.
Info: FIRST LDB TIMESTEP     50
Info: LAST LDB TIMESTEP     -1
Info: HOM BACKGROUND SCALING 1
Info: PME BACKGROUND SCALING 1
Info: MIN ATOMS PER PATCH    40
Info: INITIAL TEMPERATURE    0
Info: CENTER OF MASS MOVING INITIALLY? NO
Info: DIELECTRIC             1
Info: EXCLUDE                SCALED ONE-FOUR
Info: 1-4 ELECTROSTATICS SCALED BY 0.833333
Info: MODIFIED 1-4 VDW PARAMETERS WILL BE USED
Info: NO DCD TRAJECTORY OUTPUT
Info: NO EXTENDED SYSTEM TRAJECTORY OUTPUT
Info: NO VELOCITY DCD OUTPUT
Info: NO FORCE DCD OUTPUT
Info: OUTPUT FILENAME        ../replicas/rep69/equilibration/eq0
Info: NO RESTART FILE
Info: SWITCHING ACTIVE
Info: SWITCHING ON           10
Info: SWITCHING OFF          12
Info: PAIRLIST DISTANCE      13.5
Info: PAIRLIST SHRINK RATE   0.01
Info: PAIRLIST GROW RATE     0.01
Info: PAIRLIST TRIGGER       0.3
Info: PAIRLISTS PER CYCLE    2
Info: PAIRLISTS ENABLED
Info: MARGIN                 0
Info: HYDROGEN GROUP CUTOFF  2.5
Info: PATCH DIMENSION        16
Info: ENERGY OUTPUT STEPS    500
Info: CROSSTERM ENERGY INCLUDED IN DIHEDRAL
Info: TIMING OUTPUT STEPS    5000
Info: PRESSURE OUTPUT STEPS  500
Info: HARMONIC CONSTRAINTS ACTIVE
Info: HARMONIC CONS EXP      2
Info: HARMONIC CONS SCALING  10
Info: CONJUGATE GRADIENT MINIMIZATION ACTIVE
Info: LINE MINIMIZATION GOAL = 0.001
Info: BABY STEP SIZE = 0.01
Info: TINY STEP SIZE = 1e-06
Info: PARTICLE MESH EWALD (PME) ACTIVE
Info: PME TOLERANCE               1e-06
Info: PME EWALD COEFFICIENT       0.257952
Info: PME INTERPOLATION ORDER     4
Info: PME GRID DIMENSIONS         80 96 80
Info: PME MAXIMUM GRID SPACING    1
Info: FULL ELECTROSTATIC EVALUATION FREQUENCY      2
Info: USING VERLET I (r-RESPA) MTS SCHEME.
Info: C1 SPLITTING OF LONG RANGE ELECTROSTATICS
Info: PLACING ATOMS IN PATCHES BY HYDROGEN GROUPS
Info: RIGID BONDS TO HYDROGEN : ALL
Info:         ERROR TOLERANCE : 1e-05
Info:          MAX ITERATIONS : 100
Info: RIGID WATER USING SETTLE ALGORITHM
Info: RANDOM NUMBER SEED     1503694163
Info: USE HYDROGEN BONDS?    NO
Info: Using AMBER format force field!
Info: AMBER PARM FILE        ../build/complex.top
Info: COORDINATE PDB         ../build/complex.pdb
Info: Exclusions in PARM file will be ignored!
Info: SCNB (VDW SCALING)     2
Info: USING ARITHMETIC MEAN TO COMBINE L-J SIGMA PARAMETERS
Info: SUMMARY OF PARAMETERS:
Info: 71 BONDS
Info: 145 ANGLES
Info: 76 DIHEDRAL
Info: 0 IMPROPER
Info: 0 CROSSTERM
Info: 0 VDW
Info: 190 VDW_PAIRS
Info: 0 NBTHOLE_PAIRS
Info: STRUCTURE SUMMARY:
Info: 49394 ATOMS
Info: 49448 BONDS
Info: 8698 ANGLES
Info: 18780 DIHEDRALS
Info: 0 IMPROPERS
Info: 0 CROSSTERMS
Info: 0 EXCLUSIONS
Info: 2336 CONSTRAINTS
Info: 47058 RIGID BONDS
Info: 101124 DEGREES OF FREEDOM
Info: 17225 HYDROGEN GROUPS
Info: 4 ATOMS IN LARGEST HYDROGEN GROUP
Info: 17225 MIGRATION GROUPS
Info: 4 ATOMS IN LARGEST MIGRATION GROUP
Info: TOTAL MASS = 301478 amu
Info: TOTAL CHARGE = 1.00115e-05 e
Info: MASS DENSITY = 0.935846 g/cm^3
Info: ATOM DENSITY = 0.0923345 atoms/A^3
Info: ADDED 70656 IMPLICIT EXCLUSIONS
Info: NONBONDED TABLE R-SQUARED SPACING: 0.0625
Info: NONBONDED TABLE SIZE: 769 POINTS
Info: REMOVING COM VELOCITY 0 0 0
TCL: Minimizing for 100 steps
ETITLE: TS BOND ANGLE DIHED IMPRP ELECT VDW BOUNDARY MISC KINETIC TOTAL TEMP POTENTIAL TOTAL3 TEMPAVG PRESSURE GPRESSURE VOLUME PRESSAVG GPRESSAVG
ENERGY: 0 155.4176 1012.2698 2855.7272 0.0000 -154496.7912 207729.2052 0.0468 0.0000 0.0000 57255.8754 0.0000 57255.8754 57255.8754 0.0000 116350.2532 86546.1670 534946.2959 116350.2532 86546.1670
ENERGY: 20 304.7554 935.7912 2893.4663 0.0000 -158672.9407 17936.6593 143.9454 0.0000 0.0000 -136458.3232 0.0000 -136458.3232 -136458.3232 0.0000 16523.9386 -239.4559 534946.2959 16523.9386 -239.4559
ENERGY: 40 198.7425 799.5725 2896.9273 0.0000 -162811.4525 16417.9539 221.3029 0.0000 0.0000 -142276.9535 0.0000 -142276.9535 -142276.9535 0.0000 15011.2705 -2135.4695 534946.2959 15011.2705 -2135.4695
ENERGY: 60 130.5285 715.3440 2898.2166 0.0000 -167496.1530 15446.7546 315.2795 0.0000 0.0000 -147990.0298 0.0000 -147990.0298 -147990.0298 0.0000 13793.8846 -3799.3974 534946.2959 13793.8846 -3799.3974
ENERGY: 80 431.2734 765.6308 2904.3784 0.0000 -169937.5188 15121.1536 372.0120 0.0000 0.0000 -150343.0706 0.0000 -150343.0706 -150343.0706 0.0000 13270.3335 -4577.2411 534946.2959 13270.3335 -4577.2411
ENERGY: 100 119.3891 710.0605 2905.2590 0.0000 -171259.7177 14991.7862 387.3613 0.0000 0.0000 -152145.8616 0.0000 -152145.8616 -152145.8616 0.0000 13056.2645 -4908.1742 534946.2959 13056.2645 -4908.1742
TCL: Setting parameter constraintScaling to 5.0
TCL: Minimizing for 100 steps
ETITLE: TS BOND ANGLE DIHED IMPRP ELECT VDW BOUNDARY MISC KINETIC TOTAL TEMP POTENTIAL TOTAL3 TEMPAVG PRESSURE GPRESSURE VOLUME PRESSAVG GPRESSAVG
ENERGY: 100 119.3891 710.0605 2905.2590 0.0000 -171259.7176 14991.7862 193.6807 0.0000 0.0000 -152339.5422 0.0000 -152339.5422 -152339.5422 0.0000 13672.7707 -23021.8204 534946.2959 13672.7707 -23021.8204
ENERGY: 120 166.4526 692.2082 2910.8260 0.0000 -172914.7773 14833.3509 281.9275 0.0000 0.0000 -154030.0119 0.0000 -154030.0119 -154030.0119 0.0000 13225.2896 -4913.0044 534946.2959 13225.2896 -4913.0044
ENERGY: 140 225.1170 696.9087 2912.9605 0.0000 -174149.4704 14732.6737 321.1839 0.0000 0.0000 -155260.6266 0.0000 -155260.6266 -155260.6266 0.0000 12997.6352 -5265.6449 534946.2959 12997.6352 -5265.6449
ENERGY: 160 270.2045 684.1420 2923.2881 0.0000 -176284.4357 14758.0979 383.2522 0.0000 0.0000 -157265.4510 0.0000 -157265.4510 -157265.4510 0.0000 12739.5596 -5742.7807 534946.2959 12739.5596 -5742.7807
ENERGY: 180 172.7162 724.9577 2929.2189 0.0000 -179192.5591 15054.1598 478.3316 0.0000 0.0000 -159833.1750 0.0000 -159833.1750 -159833.1750 0.0000 12525.3905 -6230.9662 534946.2959 12525.3905 -6230.9662
ENERGY: 200 239.6703 694.1114 2941.3995 0.0000 -181558.1333 15587.4431 546.3279 0.0000 0.0000 -161549.1810 0.0000 -161549.1810 -161549.1810 0.0000 12582.6768 -6428.4406 534946.2959 12582.6768 -6428.4406
TCL: Setting parameter constraintScaling to 2.5
TCL: Minimizing for 100 steps
ETITLE: TS BOND ANGLE DIHED IMPRP ELECT VDW BOUNDARY MISC KINETIC TOTAL TEMP POTENTIAL TOTAL3 TEMPAVG PRESSURE GPRESSURE VOLUME PRESSAVG GPRESSAVG
ENERGY: 200 239.6703 694.1114 2941.3995 0.0000 -181558.1333 15587.4431 273.1640 0.0000 0.0000 -161822.3450 0.0000 -161822.3450 -161822.3450 0.0000 13229.6588 -25659.5599 534946.2959 13229.6588 -25659.5599
ENERGY: 220 245.2509 676.1336 2932.9761 0.0000 -182071.9633 15473.3798 336.7204 0.0000 0.0000 -162407.5025 0.0000 -162407.5025 -162407.5025 0.0000 12975.1421 -6089.9497 534946.2959 12975.1421 -6089.9497
ENERGY: 240 153.7495 693.9236 2928.7654 0.0000 -182681.1546 15530.0923 346.9549 0.0000 0.0000 -163027.6689 0.0000 -163027.6689 -163027.6689 0.0000 13034.0259 -6134.8615 534946.2959 13034.0259 -6134.8615
ENERGY: 260 232.8916 705.2988 2922.4052 0.0000 -183758.7012 15758.7443 380.1781 0.0000 0.0000 -163759.1833 0.0000 -163759.1833 -163759.1833 0.0000 13013.7241 -6244.4272 534946.2959 13013.7241 -6244.4272
ENERGY: 280 202.5074 704.6853 2917.5603 0.0000 -185470.7157 16244.6385 458.9964 0.0000 0.0000 -164942.3277 0.0000 -164942.3277 -164942.3277 0.0000 13140.7841 -6350.8109 534946.2959 13140.7841 -6350.8109
ENERGY: 300 118.2780 637.1942 2916.5562 0.0000 -186065.9685 16436.6211 482.5672 0.0000 0.0000 -165474.7519 0.0000 -165474.7519 -165474.7519 0.0000 13202.4757 -6347.6762 534946.2959 13202.4757 -6347.6762
TCL: Setting parameter constraintScaling to 1.25
TCL: Minimizing for 100 steps
ETITLE: TS BOND ANGLE DIHED IMPRP ELECT VDW BOUNDARY MISC KINETIC TOTAL TEMP POTENTIAL TOTAL3 TEMPAVG PRESSURE GPRESSURE VOLUME PRESSAVG GPRESSAVG
ENERGY: 300 118.2780 637.1942 2916.5562 0.0000 -186065.9685 16436.6211 241.2836 0.0000 0.0000 -165716.0355 0.0000 -165716.0355 -165716.0355 0.0000 13651.5514 -26354.6064 534946.2959 13651.5514 -26354.6064
ENERGY: 320 276.2510 655.7314 2911.1516 0.0000 -186739.4451 16603.0159 275.4164 0.0000 0.0000 -166017.8788 0.0000 -166017.8788 -166017.8788 0.0000 13632.8683 -5989.6499 534946.2959 13632.8683 -5989.6499
ENERGY: 340 139.8774 629.0506 2910.3882 0.0000 -187417.6606 16831.6138 293.8509 0.0000 0.0000 -166612.8797 0.0000 -166612.8797 -166612.8797 0.0000 13711.1914 -5978.2237 534946.2959 13711.1914 -5978.2237
ENERGY: 360 167.1289 673.3082 2909.6978 0.0000 -188298.4031 17103.8554 333.7926 0.0000 0.0000 -167110.6201 0.0000 -167110.6201 -167110.6201 0.0000 13798.4046 -6008.5155 534946.2959 13798.4046 -6008.5155
ENERGY: 380 151.4145 646.7076 2901.5202 0.0000 -189141.8106 17402.6995 355.9611 0.0000 0.0000 -167683.5076 0.0000 -167683.5076 -167683.5076 0.0000 13834.9101 -6038.6683 534946.2959 13834.9101 -6038.6683
ENERGY: 400 135.5219 635.7898 2901.5009 0.0000 -189845.1496 17666.8374 372.1951 0.0000 0.0000 -168133.3045 0.0000 -168133.3045 -168133.3045 0.0000 13980.5188 -5985.2912 534946.2959 13980.5188 -5985.2912
TCL: Setting parameter constraintScaling to 0.625
TCL: Minimizing for 100 steps
ETITLE: TS BOND ANGLE DIHED IMPRP ELECT VDW BOUNDARY MISC KINETIC TOTAL TEMP POTENTIAL TOTAL3 TEMPAVG PRESSURE GPRESSURE VOLUME PRESSAVG GPRESSAVG
ENERGY: 400 135.5219 635.7898 2901.5009 0.0000 -189845.1496 17666.8374 186.0976 0.0000 0.0000 -168319.4021 0.0000 -168319.4021 -168319.4021 0.0000 14269.8440 -26619.1825 534946.2959 14269.8440 -26619.1825
ENERGY: 420 148.7139 659.1338 2897.5398 0.0000 -190501.2892 17848.6571 219.5381 0.0000 0.0000 -168727.7065 0.0000 -168727.7065 -168727.7065 0.0000 14275.1125 -5770.3917 534946.2959 14275.1125 -5770.3917
ENERGY: 440 215.9282 665.7189 2894.6790 0.0000 -190916.2808 17988.5696 229.1977 0.0000 0.0000 -168922.1873 0.0000 -168922.1873 -168922.1873 0.0000 14274.8669 -5793.2615 534946.2959 14274.8669 -5793.2615
ENERGY: 460 146.1524 678.0015 2897.7827 0.0000 -191888.8609 18350.8154 244.7421 0.0000 0.0000 -169571.3668 0.0000 -169571.3668 -169571.3668 0.0000 14521.6245 -5692.2463 534946.2959 14521.6245 -5692.2463
ENERGY: 480 148.1504 635.5004 2889.8041 0.0000 -192202.5357 18459.3514 257.0744 0.0000 0.0000 -169812.6549 0.0000 -169812.6549 -169812.6549 0.0000 14508.6362 -5715.0020 534946.2959 14508.6362 -5715.0020
ENERGY: 500 228.6366 747.9086 2896.1036 0.0000 -193340.4603 18887.8466 307.6737 0.0000 0.0000 -170272.2912 0.0000 -170272.2912 -170272.2912 0.0000 14646.2554 -5725.3540 534946.2959 14646.2554 -5725.3540
TCL: Setting parameter constraintScaling to 0.3125
TCL: Minimizing for 100 steps
ETITLE: TS BOND ANGLE DIHED IMPRP ELECT VDW BOUNDARY MISC KINETIC TOTAL TEMP POTENTIAL TOTAL3 TEMPAVG PRESSURE GPRESSURE VOLUME PRESSAVG GPRESSAVG
ENERGY: 500 228.6366 747.9086 2896.1036 0.0000 -193340.4603 18887.8466 153.8368 0.0000 0.0000 -170426.1280 0.0000 -170426.1280 -170426.1280 0.0000 14840.9261 -26856.5811 534946.2959 14840.9261 -26856.5811
ENERGY: 520 156.4166 638.0327 2882.2315 0.0000 -193479.7560 18923.3508 149.9900 0.0000 0.0000 -170729.7344 0.0000 -170729.7344 -170729.7344 0.0000 14838.0549 -5520.5621 534946.2959 14838.0549 -5520.5621
ENERGY: 540 189.1330 742.1692 2889.5988 0.0000 -194092.1218 19163.6336 160.2447 0.0000 0.0000 -170947.3424 0.0000 -170947.3424 -170947.3424 0.0000 15012.2934 -5443.4437 534946.2959 15012.2934 -5443.4437
ENERGY: 560 197.1964 690.7977 2885.6605 0.0000 -195233.3876 19587.3063 194.9363 0.0000 0.0000 -171677.4904 0.0000 -171677.4904 -171677.4904 0.0000 15082.7332 -5466.8922 534946.2959 15082.7332 -5466.8922
ENERGY: 580 159.7912 653.9033 2871.5692 0.0000 -195620.2792 19742.5762 203.8236 0.0000 0.0000 -171988.6156 0.0000 -171988.6156 -171988.6156 0.0000 15187.5265 -5425.3784 534946.2959 15187.5265 -5425.3784
ENERGY: 600 174.8582 706.4066 2877.5582 0.0000 -196105.6516 19953.9003 207.8121 0.0000 0.0000 -172185.1163 0.0000 -172185.1163 -172185.1163 0.0000 15284.0816 -5376.9059 534946.2959 15284.0816 -5376.9059
TCL: Setting parameter constraintScaling to 0.15625
TCL: Minimizing for 100 steps
ETITLE: TS BOND ANGLE DIHED IMPRP ELECT VDW BOUNDARY MISC KINETIC TOTAL TEMP POTENTIAL TOTAL3 TEMPAVG PRESSURE GPRESSURE VOLUME PRESSAVG GPRESSAVG
ENERGY: 600 174.8582 706.4066 2877.5582 0.0000 -196105.6516 19953.9003 103.9061 0.0000 0.0000 -172289.0223 0.0000 -172289.0223 -172289.0223 0.0000 15401.1028 -26956.9726 534946.2959 15401.1028 -26956.9726
ENERGY: 620 162.3371 666.6528 2871.2247 0.0000 -196371.6545 20010.0092 110.4236 0.0000 0.0000 -172551.0070 0.0000 -172551.0070 -172551.0070 0.0000 15398.1864 -5297.8782 534946.2959 15398.1864 -5297.8782
ENERGY: 640 185.9581 695.3094 2869.2944 0.0000 -197200.3597 20339.9447 121.4817 0.0000 0.0000 -172988.3714 0.0000 -172988.3714 -172988.3714 0.0000 15566.9965 -5226.9698 534946.2959 15566.9965 -5226.9698
ENERGY: 660 280.9752 689.6004 2861.5467 0.0000 -197643.1519 20510.3644 127.6942 0.0000 0.0000 -173172.9710 0.0000 -173172.9710 -173172.9710 0.0000 15650.0976 -5197.5164 534946.2959 15650.0976 -5197.5164
ENERGY: 680 184.2669 661.6187 2859.3112 0.0000 -197864.8074 20580.3269 132.3492 0.0000 0.0000 -173446.9345 0.0000 -173446.9345 -173446.9345 0.0000 15617.1334 -5241.3791 534946.2959 15617.1334 -5241.3791
ENERGY: 700 176.9132 671.1524 2855.4091 0.0000 -198200.9535 20710.6264 135.1719 0.0000 0.0000 -173651.6806 0.0000 -173651.6806 -173651.6806 0.0000 15745.8122 -5171.3160 534946.2959 15745.8122 -5171.3160
TCL: Setting parameter constraintScaling to 0.078125
TCL: Minimizing for 100 steps
ETITLE: TS BOND ANGLE DIHED IMPRP ELECT VDW BOUNDARY MISC KINETIC TOTAL TEMP POTENTIAL TOTAL3 TEMPAVG PRESSURE GPRESSURE VOLUME PRESSAVG GPRESSAVG
ENERGY: 700 176.9132 671.1524 2855.4091 0.0000 -198200.9535 20710.6264 67.5859 0.0000 0.0000 -173719.2666 0.0000 -173719.2666 -173719.2666 0.0000 15815.0006 -27036.9289 534946.2959 15815.0006 -27036.9289
ENERGY: 720 160.3693 647.7704 2851.6143 0.0000 -198461.1817 20791.8006 69.5879 0.0000 0.0000 -173940.0392 0.0000 -173940.0392 -173940.0392 0.0000 15831.6451 -5107.2422 534946.2959 15831.6451 -5107.2422
ENERGY: 740 154.7987 678.4659 2848.7545 0.0000 -199025.3776 21008.1491 74.4835 0.0000 0.0000 -174260.7259 0.0000 -174260.7259 -174260.7259 0.0000 15945.3537 -5060.7193 534946.2959 15945.3537 -5060.7193
ENERGY: 760 226.8924 683.0920 2842.1361 0.0000 -199827.0234 21312.2547 82.7244 0.0000 0.0000 -174679.9239 0.0000 -174679.9239 -174679.9239 0.0000 16032.6270 -5054.8032 534946.2959 16032.6270 -5054.8032
ENERGY: 780 163.1657 657.1822 2841.5740 0.0000 -199843.4662 21310.6042 82.0044 0.0000 0.0000 -174788.9357 0.0000 -174788.9357 -174788.9357 0.0000 16064.7487 -5034.5884 534946.2959 16064.7487 -5034.5884
ENERGY: 800 181.1707 665.2882 2837.6872 0.0000 -200456.0158 21545.4994 85.3499 0.0000 0.0000 -175141.0204 0.0000 -175141.0204 -175141.0204 0.0000 16223.4218 -4959.1997 534946.2959 16223.4218 -4959.1997
TCL: Setting parameter constraintScaling to 0.0390625
TCL: Minimizing for 100 steps
ETITLE: TS BOND ANGLE DIHED IMPRP ELECT VDW BOUNDARY MISC KINETIC TOTAL TEMP POTENTIAL TOTAL3 TEMPAVG PRESSURE GPRESSURE VOLUME PRESSAVG GPRESSAVG
ENERGY: 800 181.1707 665.2882 2837.6872 0.0000 -200456.0158 21545.4994 42.6750 0.0000 0.0000 -175183.6954 0.0000 -175183.6954 -175183.6954 0.0000 16263.6258 -27133.8314 534946.2959 16263.6258 -27133.8314
ENERGY: 820 402.0966 855.4700 2855.7945 0.0000 -200936.1878 21721.9295 46.9963 0.0000 0.0000 -175053.9009 0.0000 -175053.9009 -175053.9009 0.0000 16321.3533 -4975.8850 534946.2959 16321.3533 -4975.8850
ENERGY: 840 329.4085 706.3815 2845.1176 0.0000 -200864.7901 21702.2867 45.5112 0.0000 0.0000 -175236.0846 0.0000 -175236.0846 -175236.0846 0.0000 16166.6817 -4993.8913 534946.2959 16166.6817 -4993.8913
ENERGY: 860 161.0043 654.6071 2834.7042 0.0000 -200918.4025 21711.5006 45.4733 0.0000 0.0000 -175511.1130 0.0000 -175511.1130 -175511.1130 0.0000 16309.5967 -4920.5530 534946.2959 16309.5967 -4920.5530
ENERGY: 880 181.1214 662.1588 2833.8627 0.0000 -201389.3953 21884.5787 47.9759 0.0000 0.0000 -175779.6979 0.0000 -175779.6979 -175779.6979 0.0000 16385.2892 -4902.6398 534946.2959 16385.2892 -4902.6398
ENERGY: 900 175.4705 657.8652 2825.8647 0.0000 -202312.5846 22272.9964 52.8288 0.0000 0.0000 -176327.5589 0.0000 -176327.5589 -176327.5589 0.0000 16563.1032 -4826.6011 534946.2959 16563.1032 -4826.6011
TCL: Setting parameter constraintScaling to 0.01953125
TCL: Minimizing for 100 steps
ETITLE: TS BOND ANGLE DIHED IMPRP ELECT VDW BOUNDARY MISC KINETIC TOTAL TEMP POTENTIAL TOTAL3 TEMPAVG PRESSURE GPRESSURE VOLUME PRESSAVG GPRESSAVG
ENERGY: 900 175.4705 657.8652 2825.8647 0.0000 -202312.5846 22272.9964 26.4144 0.0000 0.0000 -176353.9733 0.0000 -176353.9733 -176353.9733 0.0000 16585.9006 -27257.0866 534946.2959 16585.9006 -27257.0866
ENERGY: 920 181.7084 665.6425 2828.4292 0.0000 -202532.3828 22360.0270 26.8268 0.0000 0.0000 -176469.7490 0.0000 -176469.7490 -176469.7490 0.0000 16636.0193 -4775.1898 534946.2959 16636.0193 -4775.1898
ENERGY: 940 322.2080 723.5778 2834.5149 0.0000 -203007.9593 22546.6122 28.3660 0.0000 0.0000 -176552.6803 0.0000 -176552.6803 -176552.6803 0.0000 16694.1611 -4785.0059 534946.2959 16694.1611 -4785.0059
ENERGY: 960 179.5489 668.2086 2825.0526 0.0000 -203090.7243 22588.9122 28.0887 0.0000 0.0000 -176800.9132 0.0000 -176800.9132 -176800.9132 0.0000 16775.3309 -4707.0751 534946.2959 16775.3309 -4707.0751
ENERGY: 980 175.4158 658.8826 2819.7440 0.0000 -203557.3807 22778.4269 29.4473 0.0000 0.0000 -177095.4641 0.0000 -177095.4641 -177095.4641 0.0000 16863.2427 -4672.7258 534946.2959 16863.2427 -4672.7258
ENERGY: 1000 196.4404 676.9100 2814.8785 0.0000 -204394.8051 23165.6927 32.1603 0.0000 0.0000 -177508.7232 0.0000 -177508.7232 -177508.7232 0.0000 17032.5499 -4603.8863 534946.2959 17032.5499 -4603.8863
TCL: Setting parameter constraintScaling to 0
TCL: Minimizing for 5000 steps
ETITLE: TS BOND ANGLE DIHED IMPRP ELECT VDW BOUNDARY MISC KINETIC TOTAL TEMP POTENTIAL TOTAL3 TEMPAVG PRESSURE GPRESSURE VOLUME PRESSAVG GPRESSAVG
ENERGY: 1000 196.4404 676.9100 2814.8785 0.0000 -204394.8051 23165.6927 0.0000 0.0000 0.0000 -177540.8835 0.0000 -177540.8835 -177540.8835 0.0000 17058.4653 -27283.0276 534946.2959 17058.4653 -27283.0276
ENERGY: 2000 169.4554 665.2426 2803.4287 0.0000 -214553.8822 27686.0828 0.0000 0.0000 0.0000 -183229.6727 0.0000 -183229.6727 -183229.6727 0.0000 19469.0068 -3305.3942 534946.2959 19469.0068 -3305.3942
ENERGY: 3000 195.5452 688.0757 2793.7980 0.0000 -217319.4001 28801.9208 0.0000 0.0000 0.0000 -184840.0604 0.0000 -184840.0604 -184840.0604 0.0000 20073.2944 -2963.8563 534946.2959 20073.2944 -2963.8563
ENERGY: 4000 168.4218 666.6655 2792.6120 0.0000 -218392.2396 29211.5890 0.0000 0.0000 0.0000 -185552.9512 0.0000 -185552.9512 -185552.9512 0.0000 20284.3198 -2844.1854 534946.2959 20284.3198 -2844.1854
ENERGY: 5000 166.3787 665.6400 2786.0016 0.0000 -219320.5460 29600.0670 0.0000 0.0000 0.0000 -186102.4588 0.0000 -186102.4588 -186102.4588 0.0000 20476.9377 -2756.3519 534946.2959 20476.9377 -2756.3519
ENERGY: 6000 165.5787 662.3296 2785.0579 0.0000 -219826.4919 29801.3789 0.0000 0.0000 0.0000 -186412.1468 0.0000 -186412.1468 -186412.1468 0.0000 20587.1535 -2696.5734 534946.2959 20587.1535 -2696.5734
