Info: SIMULATION PARAMETERS:
Info: TIMESTEP               1
Info: NUMBER OF STEPS        0
Info: STEPS PER CYCLE        10
Info: PERIODIC CELL BASIS 1  72.449 0 0
Info: PERIODIC CELL BASIS 2  0 93.247 0
Info: PERIODIC CELL BASIS 3  0 0 79.185
Info: PERIODIC CELL CENTER   -0.248 -0.156 -0.047
Info: WRAPPING WATERS AROUND PERIODIC BOUNDARIES ON OUTPUT.
Info: WRAPPING ALL CLUSTERS AROUND PERIODIC BOUNDARIES ON OUTPUT.
Info: FIRST LDB TIMESTEP     50
Info: LAST LDB TIMESTEP     -1
Info: HOM BACKGROUND SCALING 1
Info: PME BACKGROUND SCALING 1
Info: MIN ATOMS PER PATCH    40
Info: VELOCITY FILE          ../replicas/rep83/equilibration/eq1.vel
Info: CENTER OF MASS MOVING INITIALLY? NO
Info: DIELECTRIC             1
Info: EXCLUDE                SCALED ONE-FOUR
Info: 1-4 ELECTROSTATICS SCALED BY 0.833333
Info: MODIFIED 1-4 VDW PARAMETERS WILL BE USED
Info: DCD FILENAME           ../replicas/rep83/equilibration/eq2.dcd
Info: DCD FREQUENCY          5000
Info: DCD FIRST STEP         5000
Info: DCD FILE WILL CONTAIN UNIT CELL DATA
Info: XST FILENAME           ../replicas/rep83/equilibration/eq2.xst
Info: XST FREQUENCY          5000
Info: NO VELOCITY DCD OUTPUT
Info: NO FORCE DCD OUTPUT
Info: OUTPUT FILENAME        ../replicas/rep83/equilibration/eq2
Info: RESTART FILENAME       ../replicas/rep83/equilibration/eq2.restart
Info: RESTART FREQUENCY      5000
Info: BINARY RESTART FILES WILL BE USED
Info: SWITCHING ACTIVE
Info: SWITCHING ON           10
Info: SWITCHING OFF          12
Info: PAIRLIST DISTANCE      13.5
Info: PAIRLIST SHRINK RATE   0.01
Info: PAIRLIST GROW RATE     0.01
Info: PAIRLIST TRIGGER       0.3
Info: PAIRLISTS PER CYCLE    2
Info: PAIRLISTS ENABLED
Info: MARGIN                 0.48
Info: HYDROGEN GROUP CUTOFF  2.5
Info: PATCH DIMENSION        16.48
Info: ENERGY OUTPUT STEPS    500
Info: CROSSTERM ENERGY INCLUDED IN DIHEDRAL
Info: TIMING OUTPUT STEPS    5000
Info: PRESSURE OUTPUT STEPS  500
Info: HARMONIC CONSTRAINTS ACTIVE
Info: HARMONIC CONS EXP      2
Info: HARMONIC CONS SCALING  10
Info: LANGEVIN DYNAMICS ACTIVE
Info: LANGEVIN TEMPERATURE   300
Info: LANGEVIN USING BBK INTEGRATOR
Info: LANGEVIN DAMPING COEFFICIENT IS 5 INVERSE PS
Info: LANGEVIN DYNAMICS NOT APPLIED TO HYDROGENS
Info: BERENDSEN PRESSURE COUPLING ACTIVE
Info:     TARGET PRESSURE IS 1 BAR
Info:     COMPRESSIBILITY ESTIMATE IS 4.57e-05 BAR^(-1)
Info:     RELAXATION TIME IS 100 FS
Info:     APPLIED EVERY 2 STEPS
Info:     PRESSURE CONTROL IS GROUP-BASED
Info:       CELL FLUCTUATION IS ISOTROPIC
Info: PARTICLE MESH EWALD (PME) ACTIVE
Info: PME TOLERANCE               1e-06
Info: PME EWALD COEFFICIENT       0.257952
Info: PME INTERPOLATION ORDER     4
Info: PME GRID DIMENSIONS         80 96 80
Info: PME MAXIMUM GRID SPACING    1
Info: FULL ELECTROSTATIC EVALUATION FREQUENCY      2
Info: USING VERLET I (r-RESPA) MTS SCHEME.
Info: C1 SPLITTING OF LONG RANGE ELECTROSTATICS
Info: PLACING ATOMS IN PATCHES BY HYDROGEN GROUPS
Info: RIGID BONDS TO HYDROGEN : WATER
Info:         ERROR TOLERANCE : 1e-05
Info:          MAX ITERATIONS : 100
Info: RIGID WATER USING SETTLE ALGORITHM
Info: RANDOM NUMBER SEED     1503702474
Info: USE HYDROGEN BONDS?    NO
Info: Using AMBER format force field!
Info: AMBER PARM FILE        ../build/complex.top
Info: COORDINATE PDB         ../replicas/rep83/equilibration/eq1.coor
Info: Exclusions in PARM file will be ignored!
Info: SCNB (VDW SCALING)     2
Info: USING ARITHMETIC MEAN TO COMBINE L-J SIGMA PARAMETERS
Info: SUMMARY OF PARAMETERS:
Info: 71 BONDS
Info: 145 ANGLES
Info: 76 DIHEDRAL
Info: 0 IMPROPER
Info: 0 CROSSTERM
Info: 0 VDW
Info: 190 VDW_PAIRS
Info: 0 NBTHOLE_PAIRS
Info: STRUCTURE SUMMARY:
Info: 49394 ATOMS
Info: 49448 BONDS
Info: 8698 ANGLES
Info: 18780 DIHEDRALS
Info: 0 IMPROPERS
Info: 0 CROSSTERMS
Info: 0 EXCLUSIONS
Info: 2336 CONSTRAINTS
Info: 44667 RIGID BONDS
Info: 103515 DEGREES OF FREEDOM
Info: 17225 HYDROGEN GROUPS
Info: 4 ATOMS IN LARGEST HYDROGEN GROUP
Info: 17225 MIGRATION GROUPS
Info: 4 ATOMS IN LARGEST MIGRATION GROUP
Info: TOTAL MASS = 301478 amu
Info: TOTAL CHARGE = 1.00115e-05 e
Info: MASS DENSITY = 0.935846 g/cm^3
Info: ATOM DENSITY = 0.0923345 atoms/A^3
Info: ADDED 70656 IMPLICIT EXCLUSIONS
Info: NONBONDED TABLE R-SQUARED SPACING: 0.0625
Info: NONBONDED TABLE SIZE: 769 POINTS
Info: REMOVING COM VELOCITY -0.0278608 -0.0218151 -0.0635219
TCL: Running for 5000 steps
ETITLE: TS BOND ANGLE DIHED IMPRP ELECT VDW BOUNDARY MISC KINETIC TOTAL TEMP POTENTIAL TOTAL3 TEMPAVG PRESSURE GPRESSURE VOLUME PRESSAVG GPRESSAVG
ENERGY: 0 396.8280 1220.0360 2911.1001 0.0000 -212897.8703 29664.7164 0.0000 0.0000 9965.9082 -168739.2817 96.8956 -178705.1899 -168729.6040 96.8956 -2363.1613 -2461.6329 534946.2959 -2363.1613 -2461.6329
ENERGY: 1000 1269.1330 1993.0116 3121.5687 0.0000 -193705.0865 26581.1264 763.7234 0.0000 24038.6782 -135937.8452 233.7210 -159976.5234 -135903.0166 218.7742 -57.3684 -29.9050 523271.8100 -1.6578 -1.3685
ENERGY: 2000 1425.8164 2167.3911 3156.5363 0.0000 -184316.4133 23354.5686 805.5990 0.0000 27960.9019 -125445.6000 271.8556 -153406.5018 -125402.4882 264.1521 -25.2185 -26.0571 515130.8162 -33.5098 -34.0429
ENERGY: 3000 1523.5170 2240.3734 3140.1984 0.0000 -179132.0845 21552.4857 786.5559 0.0000 29616.3755 -120272.5786 287.9513 -149888.9541 -120230.1695 284.4645 -75.0006 -41.5809 510549.4063 -22.6080 -22.2221
ENERGY: 4000 1538.5022 2185.5981 3126.4670 0.0000 -176745.9042 20639.5599 798.1753 0.0000 30264.9749 -118192.6267 294.2574 -148457.6016 -118144.6364 293.3159 -79.6348 -15.0727 505636.6142 -21.4408 -20.8781
ENERGY: 5000 1563.7618 2263.1058 3134.9379 0.0000 -176152.8722 20476.6398 794.1765 0.0000 30623.8423 -117296.4081 297.7466 -147920.2503 -117247.3214 296.5456 -32.9253 -4.8835 504300.9110 0.7086 1.0614
TCL: Setting parameter constraintScaling to 5.0
TCL: Running for 5000 steps
ETITLE: TS BOND ANGLE DIHED IMPRP ELECT VDW BOUNDARY MISC KINETIC TOTAL TEMP POTENTIAL TOTAL3 TEMPAVG PRESSURE GPRESSURE VOLUME PRESSAVG GPRESSAVG
ENERGY: 5000 1563.7618 2263.1058 3134.9379 0.0000 -176152.8722 20476.6398 397.0882 0.0000 30621.7956 -117695.5430 297.7267 -148317.3386 -117652.1376 297.7267 -51.6794 -20.0427 504300.9110 -51.6794 -20.0427
ENERGY: 6000 1552.2195 2304.6635 3153.2734 0.0000 -176060.2945 20368.7469 656.6974 0.0000 30708.1741 -117316.5196 298.5665 -148024.6937 -117271.6096 296.5431 -4.2024 25.8494 503666.9230 -3.0937 -3.4264
ENERGY: 7000 1567.3577 2318.7334 3179.6656 0.0000 -175478.2486 20178.1069 659.4915 0.0000 30918.1905 -116656.7031 300.6084 -147574.8936 -116620.4642 299.5319 -132.5258 17.3437 502269.2162 -14.4912 -13.7390
ENERGY: 8000 1555.0963 2242.6102 3174.4178 0.0000 -175350.3604 20028.2909 645.0006 0.0000 31060.5801 -116644.3645 301.9928 -147704.9445 -116594.4821 300.3224 101.7068 57.9451 499779.5658 -18.6918 -18.2304
ENERGY: 9000 1641.5114 2298.3756 3178.7261 0.0000 -175589.7672 20236.7247 627.3107 0.0000 30937.3883 -116669.7304 300.7951 -147607.1186 -116620.6611 300.5619 -139.3092 9.1597 501386.5943 1.9729 2.5635
ENERGY: 10000 1627.0308 2327.0564 3155.0359 0.0000 -175524.1085 20112.4449 654.8517 0.0000 30730.2914 -116917.3974 298.7816 -147647.6888 -116864.5032 300.4577 -82.6625 -26.6624 500692.8263 -3.7308 -3.8458
TCL: Setting parameter constraintScaling to 2.5
TCL: Running for 5000 steps
ETITLE: TS BOND ANGLE DIHED IMPRP ELECT VDW BOUNDARY MISC KINETIC TOTAL TEMP POTENTIAL TOTAL3 TEMPAVG PRESSURE GPRESSURE VOLUME PRESSAVG GPRESSAVG
ENERGY: 10000 1627.0308 2327.0564 3155.0359 0.0000 -175524.1085 20112.4449 327.4258 0.0000 30728.2370 -117246.8777 298.7616 -147975.1147 -117200.3461 298.7616 -157.0065 -106.5135 500692.8263 -157.0065 -106.5135
ENERGY: 11000 1653.8142 2374.5440 3184.3515 0.0000 -175609.0415 20161.4720 507.4063 0.0000 30835.0527 -116892.4008 299.8001 -147727.4536 -116847.5785 299.9904 -89.5956 -3.7820 499528.4739 0.6746 0.6898
ENERGY: 12000 1599.0057 2373.2869 3182.4664 0.0000 -175452.5350 19855.0507 523.7258 0.0000 30805.4551 -117113.5444 299.5123 -147918.9995 -117066.8190 299.4480 -137.2417 5.8354 499418.9176 3.5768 3.3830
ENERGY: 13000 1617.5814 2288.6217 3171.6889 0.0000 -176283.6823 20441.8691 512.3605 0.0000 30773.5613 -117477.9994 299.2023 -148251.5607 -117436.1959 297.8297 -102.2912 32.0925 498572.7681 -0.6199 -0.6365
ENERGY: 14000 1596.8115 2380.4988 3189.6966 0.0000 -176000.5562 20040.3007 508.9515 0.0000 30954.3947 -117329.9025 300.9604 -148284.2972 -117285.3083 298.8562 -86.2802 19.9379 498940.6222 1.9273 1.6548
ENERGY: 15000 1653.2079 2338.3256 3157.7646 0.0000 -175824.4554 19842.9992 514.8019 0.0000 30847.8055 -117469.5508 299.9241 -148317.3563 -117429.1725 299.1593 150.2972 50.5153 497927.2008 0.1678 -0.4702
TCL: Setting parameter constraintScaling to 1.25
TCL: Running for 5000 steps
ETITLE: TS BOND ANGLE DIHED IMPRP ELECT VDW BOUNDARY MISC KINETIC TOTAL TEMP POTENTIAL TOTAL3 TEMPAVG PRESSURE GPRESSURE VOLUME PRESSAVG GPRESSAVG
ENERGY: 15000 1653.2079 2338.3256 3157.7646 0.0000 -175824.4554 19842.9992 257.4009 0.0000 30845.7664 -117728.9908 299.9043 -148574.7572 -117687.2952 299.9043 59.8977 -45.4512 497927.2008 59.8977 -45.4512
ENERGY: 16000 1582.6401 2432.7866 3162.3109 0.0000 -176377.3717 20312.6204 384.7876 0.0000 30774.9146 -117727.3114 299.2154 -148502.2260 -117687.4661 298.8742 -207.2071 -92.4921 498545.2204 -12.6908 -12.7627
ENERGY: 17000 1609.4904 2399.0728 3167.8627 0.0000 -175745.5501 20132.4381 402.6338 0.0000 30641.9768 -117392.0754 297.9229 -148034.0523 -117353.4008 299.0781 30.6509 32.3080 498871.2484 4.0364 3.2276
ENERGY: 18000 1642.5600 2420.2818 3202.5906 0.0000 -176193.5345 20338.3643 413.1227 0.0000 30728.6460 -117447.9691 298.7656 -148176.6152 -117390.4302 298.8912 23.7316 -24.3047 497790.3354 -9.6623 -10.5861
ENERGY: 19000 1629.0008 2379.4760 3218.1321 0.0000 -175926.2545 20119.7497 407.7043 0.0000 30816.7917 -117355.4000 299.6226 -148172.1917 -117308.1421 299.3812 -45.6547 -56.9211 498265.8357 9.1514 9.1032
ENERGY: 20000 1606.5230 2415.1342 3218.5083 0.0000 -176155.1222 20450.4857 389.4826 0.0000 30775.9708 -117299.0176 299.2257 -148074.9884 -117251.8925 299.7736 30.7135 -3.5171 498083.0067 1.9268 1.6606
TCL: Setting parameter constraintScaling to 0.625
TCL: Running for 5000 steps
ETITLE: TS BOND ANGLE DIHED IMPRP ELECT VDW BOUNDARY MISC KINETIC TOTAL TEMP POTENTIAL TOTAL3 TEMPAVG PRESSURE GPRESSURE VOLUME PRESSAVG GPRESSAVG
ENERGY: 20000 1606.5230 2415.1342 3218.5083 0.0000 -176155.1222 20450.4857 194.7413 0.0000 30773.8860 -117495.8437 299.2054 -148269.7297 -117456.0350 299.2054 101.0050 64.3069 498083.0067 101.0050 64.3069
ENERGY: 21000 1615.0493 2417.7284 3208.9313 0.0000 -175856.6726 20048.2475 318.0483 0.0000 30743.1293 -117505.5385 298.9064 -148248.6678 -117472.9944 299.2750 -40.7490 43.9239 497695.7937 1.5330 1.9645
ENERGY: 22000 1662.7788 2389.5395 3197.0656 0.0000 -175926.9500 20133.4582 320.5926 0.0000 30858.4799 -117365.0355 300.0279 -148223.5153 -117314.6517 299.2686 -134.6031 -60.2381 499465.1473 13.2087 13.1028
ENERGY: 23000 1565.6542 2401.0351 3217.8951 0.0000 -175560.4254 20051.0180 326.5051 0.0000 30632.5481 -117365.7698 297.8312 -147998.3179 -117329.9997 299.6957 -52.7037 -32.0963 498830.8791 0.6737 0.3720
ENERGY: 24000 1656.8057 2394.3636 3204.9774 0.0000 -175663.3437 20111.0546 312.9416 0.0000 30628.8316 -117354.3694 297.7951 -147983.2010 -117299.2000 300.2884 -118.0076 -64.2516 498440.7837 -6.7877 -7.6980
ENERGY: 25000 1660.8363 2470.3840 3207.4227 0.0000 -176033.1794 20208.8207 305.5002 0.0000 30985.8664 -117194.3491 301.2664 -148180.2155 -117145.7200 301.2874 13.8869 37.9860 497930.4673 1.1709 0.9699
TCL: Setting parameter constraintScaling to 0.3125
TCL: Running for 5000 steps
ETITLE: TS BOND ANGLE DIHED IMPRP ELECT VDW BOUNDARY MISC KINETIC TOTAL TEMP POTENTIAL TOTAL3 TEMPAVG PRESSURE GPRESSURE VOLUME PRESSAVG GPRESSAVG
ENERGY: 25000 1660.8363 2470.3840 3207.4227 0.0000 -176033.1794 20208.8207 152.7501 0.0000 30983.8271 -117349.1384 301.2466 -148332.9655 -117307.4336 301.2466 15.5686 36.7518 497930.4673 15.5686 36.7518
ENERGY: 26000 1699.5518 2441.9022 3176.3922 0.0000 -175810.0489 20001.2047 234.7257 0.0000 30863.2334 -117393.0391 300.0741 -148256.2724 -117348.3646 299.1792 -32.0844 -1.7394 497493.9485 2.4051 2.9613
ENERGY: 27000 1650.8821 2471.5737 3207.9809 0.0000 -176207.0139 20178.1064 246.7318 0.0000 30737.1273 -117714.6118 298.8480 -148451.7391 -117674.8967 298.9981 -70.8700 -49.9611 498244.8190 4.9701 5.0453
ENERGY: 28000 1583.9528 2394.4733 3196.9683 0.0000 -176093.2008 20183.4458 251.5447 0.0000 30895.5919 -117587.2238 300.3887 -148482.8158 -117542.3437 299.0195 -0.8715 68.1731 497627.3126 -6.2402 -6.2629
ENERGY: 29000 1656.2947 2478.8685 3199.5709 0.0000 -176177.7042 20371.1558 241.0399 0.0000 30927.0489 -117303.7256 300.6946 -148230.7745 -117254.0125 299.5381 -22.9499 35.4113 498227.9380 7.6181 7.5316
ENERGY: 30000 1652.7022 2391.7730 3205.0193 0.0000 -175904.0075 20102.8601 237.5091 0.0000 30913.3369 -117400.8069 300.5612 -148314.1439 -117357.2798 300.1584 15.8282 0.6259 498240.7315 0.9044 0.4971
TCL: Setting parameter constraintScaling to 0.15625
TCL: Running for 5000 steps
ETITLE: TS BOND ANGLE DIHED IMPRP ELECT VDW BOUNDARY MISC KINETIC TOTAL TEMP POTENTIAL TOTAL3 TEMPAVG PRESSURE GPRESSURE VOLUME PRESSAVG GPRESSAVG
ENERGY: 30000 1652.7022 2391.7730 3205.0193 0.0000 -175904.0075 20102.8601 118.7546 0.0000 30911.2976 -117521.6008 300.5414 -148432.8984 -117477.7194 300.5414 28.1946 14.4111 498240.7315 28.1946 14.4111
ENERGY: 31000 1678.1227 2423.5845 3210.1328 0.0000 -175850.0027 20317.9082 200.4361 0.0000 30909.0040 -117110.8145 300.5191 -148019.8185 -117068.7493 300.9761 14.7372 42.8714 499955.3720 23.0928 23.7079
ENERGY: 32000 1628.3541 2433.5710 3203.0185 0.0000 -175448.4255 20030.8879 204.8114 0.0000 30835.3832 -117112.3995 299.8033 -147947.7826 -117057.0764 300.9145 7.5580 7.6824 498257.5376 1.8119 1.5279
ENERGY: 33000 1638.3437 2440.7692 3204.6706 0.0000 -175405.3676 19853.9245 195.2486 0.0000 30864.5707 -117207.8403 300.0871 -148072.4110 -117162.9632 300.7124 18.5705 8.3619 497529.6300 2.7559 2.7928
ENERGY: 34000 1596.4515 2382.7289 3257.5642 0.0000 -175791.8259 20053.1436 198.0343 0.0000 31215.8653 -117088.0382 303.5026 -148303.9035 -117036.2243 301.0018 -136.8323 -28.2795 497464.7495 4.8055 4.4998
ENERGY: 35000 1662.1756 2437.4150 3227.3242 0.0000 -175974.0084 20086.0636 209.6016 0.0000 31012.9484 -117338.4801 301.5297 -148351.4285 -117305.0219 299.9420 -6.9848 -3.2536 497063.2659 8.1594 8.3018
TCL: Setting parameter constraintScaling to 0.078125
TCL: Running for 5000 steps
ETITLE: TS BOND ANGLE DIHED IMPRP ELECT VDW BOUNDARY MISC KINETIC TOTAL TEMP POTENTIAL TOTAL3 TEMPAVG PRESSURE GPRESSURE VOLUME PRESSAVG GPRESSAVG
ENERGY: 35000 1662.1756 2437.4150 3227.3242 0.0000 -175974.0085 20086.0636 104.8008 0.0000 31010.9107 -117445.3186 301.5099 -148456.2293 -117402.9332 301.5099 -27.0010 -30.7813 497063.2659 -27.0010 -30.7813
ENERGY: 36000 1607.7820 2445.5324 3214.0573 0.0000 -176066.7852 20234.5990 151.2118 0.0000 30766.7105 -117646.8922 299.1356 -148413.6027 -117592.6736 299.6790 145.3721 118.7650 497145.6607 -1.7233 -1.1872
ENERGY: 37000 1647.4815 2456.5515 3194.0705 0.0000 -175707.4139 19860.9666 167.3830 0.0000 30737.2798 -117643.6811 298.8495 -148380.9609 -117614.7456 299.6230 -47.3404 -20.6371 496402.0900 -11.9563 -11.4932
ENERGY: 38000 1652.9722 2342.9741 3186.3432 0.0000 -175949.9653 20109.9389 171.9544 0.0000 30941.8666 -117543.9159 300.8386 -148485.7824 -117503.1878 299.2220 -112.4858 -135.1652 497896.2686 6.9646 6.7813
ENERGY: 39000 1620.4894 2330.1255 3214.9377 0.0000 -175721.8427 20015.5756 168.2064 0.0000 30526.8274 -117845.6807 296.8033 -148372.5081 -117801.2187 299.1045 -79.6139 2.4585 498158.3519 7.5020 7.0983
ENERGY: 40000 1551.6804 2382.0139 3186.3672 0.0000 -175882.2295 20142.1451 166.1216 0.0000 30556.7501 -117897.1511 297.0943 -148453.9013 -117866.5144 298.7258 44.1035 92.8012 497881.5561 2.6171 2.4325
TCL: Setting parameter constraintScaling to 0.0390625
TCL: Running for 5000 steps
ETITLE: TS BOND ANGLE DIHED IMPRP ELECT VDW BOUNDARY MISC KINETIC TOTAL TEMP POTENTIAL TOTAL3 TEMPAVG PRESSURE GPRESSURE VOLUME PRESSAVG GPRESSAVG
ENERGY: 40000 1551.6804 2382.0139 3186.3672 0.0000 -175882.2295 20142.1451 83.0608 0.0000 30554.6891 -117982.2730 297.0742 -148536.9621 -117939.2126 297.0742 33.7525 77.4256 497881.5561 33.7525 77.4256
ENERGY: 41000 1668.4176 2391.6615 3189.5525 0.0000 -176213.6610 20157.5589 109.3233 0.0000 30592.7790 -118104.3682 297.4446 -148697.1472 -118054.3315 298.0194 -52.9297 -73.6412 496830.5830 -2.2154 -2.6656
ENERGY: 42000 1621.0336 2396.0488 3217.2507 0.0000 -176421.8844 20160.8041 118.2463 0.0000 30660.8579 -118247.6430 298.1065 -148908.5009 -118202.5363 296.4418 -89.4260 -70.2092 495857.0193 -3.2727 -3.4605
ENERGY: 43000 1583.9402 2371.2501 3228.7621 0.0000 -175910.8293 19989.1978 122.4478 0.0000 30888.9638 -117726.2675 300.3243 -148615.2313 -117678.1548 297.8995 -1.6287 -54.2108 497405.1961 4.8010 4.4482
ENERGY: 44000 1588.7270 2414.9975 3204.8627 0.0000 -176183.6773 20014.1000 138.6284 0.0000 30762.6756 -118059.6862 299.0964 -148822.3618 -118014.6215 298.1474 11.0587 20.4737 497059.7775 4.4399 4.6028
ENERGY: 45000 1670.5222 2396.0644 3229.4477 0.0000 -176031.3423 20067.2095 140.8363 0.0000 30849.6772 -117677.5850 299.9423 -148527.2622 -117639.2723 298.4482 -89.4758 -80.3002 496184.3079 1.3450 2.1241
TCL: Setting parameter constraintScaling to 0.01953125
TCL: Running for 5000 steps
ETITLE: TS BOND ANGLE DIHED IMPRP ELECT VDW BOUNDARY MISC KINETIC TOTAL TEMP POTENTIAL TOTAL3 TEMPAVG PRESSURE GPRESSURE VOLUME PRESSAVG GPRESSAVG
ENERGY: 45000 1670.5222 2396.0644 3229.4477 0.0000 -176031.3423 20067.2095 70.4181 0.0000 30847.6329 -117750.0474 299.9224 -148597.6804 -117709.6331 299.9224 -86.6836 -79.9124 496184.3079 -86.6836 -79.9124
ENERGY: 46000 1706.4647 2376.4363 3196.4890 0.0000 -176447.7147 20257.1841 78.4425 0.0000 30943.0467 -117889.6514 300.8501 -148832.6981 -117847.2007 298.5030 21.8910 41.4095 495284.7672 -1.9487 -1.4885
ENERGY: 47000 1631.9447 2476.9855 3191.8365 0.0000 -176066.5589 20182.4733 84.6178 0.0000 30896.0973 -117602.6038 300.3936 -148498.7011 -117561.1949 300.6230 -9.4162 68.2319 496764.9386 6.9104 7.1456
ENERGY: 48000 1627.9148 2367.6480 3174.1907 0.0000 -175866.8878 20055.5038 87.5545 0.0000 31052.0997 -117501.9763 301.9104 -148554.0760 -117461.4033 299.4323 -14.2651 64.3023 496205.7674 6.4335 6.2813
ENERGY: 49000 1626.7427 2394.9374 3175.6260 0.0000 -175754.2865 19837.0917 89.3454 0.0000 30776.5758 -117853.9676 299.2316 -148630.5434 -117798.7914 299.1574 -5.0349 -1.7415 495911.9850 -4.6283 -4.5876
ENERGY: 50000 1560.3046 2384.1039 3210.7898 0.0000 -175909.9123 20029.9583 96.1141 0.0000 30806.5237 -117822.1179 299.5227 -148628.6415 -117778.4100 298.6412 30.0281 82.8872 497013.4634 4.0962 4.1548
TCL: Setting parameter constraintScaling to 0
TCL: Running for 5000 steps
ETITLE: TS BOND ANGLE DIHED IMPRP ELECT VDW BOUNDARY MISC KINETIC TOTAL TEMP POTENTIAL TOTAL3 TEMPAVG PRESSURE GPRESSURE VOLUME PRESSAVG GPRESSAVG
ENERGY: 50000 1560.3046 2384.1039 3210.7898 0.0000 -175909.9123 20029.9583 0.0000 0.0000 30804.4534 -117920.3023 299.5026 -148724.7557 -117877.1254 299.5026 18.1980 66.6652 497013.4634 18.1980 66.6652
ENERGY: 51000 1594.0428 2385.1124 3216.1723 0.0000 -175781.9127 19930.7534 0.0000 0.0000 30640.2234 -118015.6083 297.9058 -148655.8317 -117981.6413 298.5221 93.2600 65.8222 496166.2235 0.2419 0.8120
ENERGY: 52000 1609.5896 2446.1684 3236.5784 0.0000 -176054.1261 20036.8466 0.0000 0.0000 30698.6761 -118026.2670 298.4742 -148724.9431 -117995.4402 298.8938 -63.0413 15.3510 494686.9917 -12.4338 -12.7953
ENERGY: 53000 1544.9751 2347.1247 3249.1669 0.0000 -176016.8427 20027.9426 0.0000 0.0000 31066.1388 -117781.4947 302.0469 -148847.6335 -117739.2306 299.5556 -4.6148 42.5022 495698.6210 -3.7707 -3.3096
ENERGY: 54000 1583.4817 2422.5545 3205.5232 0.0000 -175753.2446 19942.7567 0.0000 0.0000 30850.3961 -117748.5324 299.9493 -148598.9285 -117702.3958 299.5189 33.4009 -35.4074 495809.6706 -1.9194 -2.4725
ENERGY: 55000 1588.9260 2387.2895 3189.9129 0.0000 -176067.5951 20085.8692 0.0000 0.0000 30970.7091 -117844.8884 301.1191 -148815.5975 -117773.8735 299.7865 14.0451 -70.6795 496834.6273 4.3804 4.1398
