Info: SIMULATION PARAMETERS:
Info: TIMESTEP               1
Info: NUMBER OF STEPS        0
Info: STEPS PER CYCLE        10
Info: PERIODIC CELL BASIS 1  72.449 0 0
Info: PERIODIC CELL BASIS 2  0 93.247 0
Info: PERIODIC CELL BASIS 3  0 0 79.185
Info: PERIODIC CELL CENTER   -0.248 -0.156 -0.047
Info: WRAPPING WATERS AROUND PERIODIC BOUNDARIES ON OUTPUT.
Info: WRAPPING ALL CLUSTERS AROUND PERIODIC BOUNDARIES ON OUTPUT.
Info: FIRST LDB TIMESTEP     50
Info: LAST LDB TIMESTEP     -1
Info: HOM BACKGROUND SCALING 1
Info: PME BACKGROUND SCALING 1
Info: MIN ATOMS PER PATCH    40
Info: VELOCITY FILE          ../replicas/rep112/equilibration/eq1.vel
Info: CENTER OF MASS MOVING INITIALLY? NO
Info: DIELECTRIC             1
Info: EXCLUDE                SCALED ONE-FOUR
Info: 1-4 ELECTROSTATICS SCALED BY 0.833333
Info: MODIFIED 1-4 VDW PARAMETERS WILL BE USED
Info: DCD FILENAME           ../replicas/rep112/equilibration/eq2.dcd
Info: DCD FREQUENCY          5000
Info: DCD FIRST STEP         5000
Info: DCD FILE WILL CONTAIN UNIT CELL DATA
Info: XST FILENAME           ../replicas/rep112/equilibration/eq2.xst
Info: XST FREQUENCY          5000
Info: NO VELOCITY DCD OUTPUT
Info: NO FORCE DCD OUTPUT
Info: OUTPUT FILENAME        ../replicas/rep112/equilibration/eq2
Info: RESTART FILENAME       ../replicas/rep112/equilibration/eq2.restart
Info: RESTART FREQUENCY      5000
Info: BINARY RESTART FILES WILL BE USED
Info: SWITCHING ACTIVE
Info: SWITCHING ON           10
Info: SWITCHING OFF          12
Info: PAIRLIST DISTANCE      13.5
Info: PAIRLIST SHRINK RATE   0.01
Info: PAIRLIST GROW RATE     0.01
Info: PAIRLIST TRIGGER       0.3
Info: PAIRLISTS PER CYCLE    2
Info: PAIRLISTS ENABLED
Info: MARGIN                 0.48
Info: HYDROGEN GROUP CUTOFF  2.5
Info: PATCH DIMENSION        16.48
Info: ENERGY OUTPUT STEPS    500
Info: CROSSTERM ENERGY INCLUDED IN DIHEDRAL
Info: TIMING OUTPUT STEPS    5000
Info: PRESSURE OUTPUT STEPS  500
Info: HARMONIC CONSTRAINTS ACTIVE
Info: HARMONIC CONS EXP      2
Info: HARMONIC CONS SCALING  10
Info: LANGEVIN DYNAMICS ACTIVE
Info: LANGEVIN TEMPERATURE   300
Info: LANGEVIN USING BBK INTEGRATOR
Info: LANGEVIN DAMPING COEFFICIENT IS 5 INVERSE PS
Info: LANGEVIN DYNAMICS NOT APPLIED TO HYDROGENS
Info: BERENDSEN PRESSURE COUPLING ACTIVE
Info:     TARGET PRESSURE IS 1 BAR
Info:     COMPRESSIBILITY ESTIMATE IS 4.57e-05 BAR^(-1)
Info:     RELAXATION TIME IS 100 FS
Info:     APPLIED EVERY 2 STEPS
Info:     PRESSURE CONTROL IS GROUP-BASED
Info:       CELL FLUCTUATION IS ISOTROPIC
Info: PARTICLE MESH EWALD (PME) ACTIVE
Info: PME TOLERANCE               1e-06
Info: PME EWALD COEFFICIENT       0.257952
Info: PME INTERPOLATION ORDER     4
Info: PME GRID DIMENSIONS         80 96 80
Info: PME MAXIMUM GRID SPACING    1
Info: FULL ELECTROSTATIC EVALUATION FREQUENCY      2
Info: USING VERLET I (r-RESPA) MTS SCHEME.
Info: C1 SPLITTING OF LONG RANGE ELECTROSTATICS
Info: PLACING ATOMS IN PATCHES BY HYDROGEN GROUPS
Info: RIGID BONDS TO HYDROGEN : WATER
Info:         ERROR TOLERANCE : 1e-05
Info:          MAX ITERATIONS : 100
Info: RIGID WATER USING SETTLE ALGORITHM
Info: RANDOM NUMBER SEED     1503700446
Info: USE HYDROGEN BONDS?    NO
Info: Using AMBER format force field!
Info: AMBER PARM FILE        ../build/complex.top
Info: COORDINATE PDB         ../replicas/rep112/equilibration/eq1.coor
Info: Exclusions in PARM file will be ignored!
Info: SCNB (VDW SCALING)     2
Info: USING ARITHMETIC MEAN TO COMBINE L-J SIGMA PARAMETERS
Info: SUMMARY OF PARAMETERS:
Info: 71 BONDS
Info: 145 ANGLES
Info:   145 HARMONIC
Info:   0 COSINE-BASED
Info: 76 DIHEDRAL
Info: 0 IMPROPER
Info: 0 CROSSTERM
Info: 0 VDW
Info: 190 VDW_PAIRS
Info: 0 NBTHOLE_PAIRS
Info: STRUCTURE SUMMARY:
Info: 49394 ATOMS
Info: 49448 BONDS
Info: 8698 ANGLES
Info: 18780 DIHEDRALS
Info: 0 IMPROPERS
Info: 0 CROSSTERMS
Info: 0 EXCLUSIONS
Info: 2336 CONSTRAINTS
Info: 44667 RIGID BONDS
Info: 103515 DEGREES OF FREEDOM
Info: 17225 HYDROGEN GROUPS
Info: 4 ATOMS IN LARGEST HYDROGEN GROUP
Info: 17225 MIGRATION GROUPS
Info: 4 ATOMS IN LARGEST MIGRATION GROUP
Info: TOTAL MASS = 301478 amu
Info: TOTAL CHARGE = 1.00115e-05 e
Info: MASS DENSITY = 0.935846 g/cm^3
Info: ATOM DENSITY = 0.0923345 atoms/A^3
Info: ADDED 70656 IMPLICIT EXCLUSIONS
Info: NONBONDED TABLE R-SQUARED SPACING: 0.0625
Info: NONBONDED TABLE SIZE: 769 POINTS
Info: REMOVING COM VELOCITY 0.00115005 0.0102015 -0.0126896
TCL: Running for 5000 steps
ETITLE: TS BOND ANGLE DIHED IMPRP ELECT VDW BOUNDARY MISC KINETIC TOTAL TEMP POTENTIAL TOTAL3 TEMPAVG PRESSURE GPRESSURE VOLUME PRESSAVG GPRESSAVG
ENERGY: 0 402.0770 1215.0455 2911.9087 0.0000 -212840.0951 29548.8093 0.0000 0.0000 10017.2250 -168745.0296 97.3945 -178762.2547 -168735.3765 97.3945 -2374.6656 -2477.7312 534946.2959 -2374.6656 -2477.7312
ENERGY: 1000 1240.7266 2010.5016 3126.3848 0.0000 -193658.2527 26488.3649 768.1086 0.0000 24126.6280 -135897.5381 234.5761 -160024.1661 -135861.9596 218.8075 -46.6425 -20.8473 521650.3983 -19.8372 -19.9611
ENERGY: 2000 1463.2572 2121.5523 3134.4908 0.0000 -184155.0614 23217.5807 783.3318 0.0000 27609.5710 -125825.2776 268.4397 -153434.8486 -125785.7522 263.5861 -41.3121 -54.7283 516696.2232 -15.4389 -15.3514
ENERGY: 3000 1498.6335 2232.2795 3116.9553 0.0000 -178921.6983 21366.6450 823.6929 0.0000 29565.5060 -120317.9862 287.4567 -149883.4922 -120263.2795 283.7722 -77.7458 -20.5080 512137.3138 -12.1256 -11.4146
ENERGY: 4000 1553.4925 2266.8116 3148.9583 0.0000 -177233.8536 21137.7530 790.3205 0.0000 30352.8591 -117983.6586 295.1119 -148336.5177 -117939.2341 293.8712 -55.1294 -8.3680 507611.5466 -12.7320 -12.6031
ENERGY: 5000 1628.7704 2255.8181 3138.6260 0.0000 -175901.6865 20385.9710 833.0078 0.0000 30692.5946 -116966.8985 298.4150 -147659.4932 -116919.1961 297.6422 -11.9621 -20.0689 505600.7218 -14.4893 -14.6468
TCL: Setting parameter constraintScaling to 5.0
TCL: Running for 5000 steps
ETITLE: TS BOND ANGLE DIHED IMPRP ELECT VDW BOUNDARY MISC KINETIC TOTAL TEMP POTENTIAL TOTAL3 TEMPAVG PRESSURE GPRESSURE VOLUME PRESSAVG GPRESSAVG
ENERGY: 5000 1628.7704 2255.8181 3138.6260 0.0000 -175901.6865 20385.9710 416.5039 0.0000 30690.5580 -117385.4390 298.3952 -148075.9971 -117342.8470 298.3952 -23.1806 -32.5089 505600.7218 -23.1806 -32.5089
ENERGY: 6000 1611.1795 2263.0722 3170.7635 0.0000 -175253.5026 19891.7793 654.4165 0.0000 30726.7057 -116935.5860 298.7467 -147662.2917 -116896.8832 298.7953 -58.2803 -10.9288 505132.7744 2.3521 2.1778
ENERGY: 7000 1618.9394 2311.3278 3137.7232 0.0000 -175929.6536 20281.6715 633.8177 0.0000 30817.1923 -117128.9816 299.6265 -147946.1739 -117082.5029 298.7312 -31.3300 -12.0864 502955.7863 -25.2268 -25.9112
ENERGY: 8000 1636.5086 2294.5090 3160.1017 0.0000 -175322.9384 19979.6955 667.0188 0.0000 30991.2658 -116593.8389 301.3189 -147585.1047 -116547.1147 299.7032 33.1473 14.0737 502352.2387 1.3577 1.3657
ENERGY: 9000 1610.5567 2321.1018 3162.4859 0.0000 -175407.3308 19753.3173 657.1312 0.0000 30780.0767 -117122.6613 299.2656 -147902.7380 -117076.9632 299.1383 -94.9702 -30.4563 502222.0643 3.0072 2.7986
ENERGY: 10000 1558.4343 2320.5193 3180.2420 0.0000 -175561.4326 20158.0072 631.8778 0.0000 30700.6410 -117011.7109 298.4933 -147712.3519 -116971.3017 299.5516 -87.2602 -39.5311 501627.0310 -4.2631 -4.2540
TCL: Setting parameter constraintScaling to 2.5
TCL: Running for 5000 steps
ETITLE: TS BOND ANGLE DIHED IMPRP ELECT VDW BOUNDARY MISC KINETIC TOTAL TEMP POTENTIAL TOTAL3 TEMPAVG PRESSURE GPRESSURE VOLUME PRESSAVG GPRESSAVG
ENERGY: 10000 1558.4343 2320.5193 3180.2420 0.0000 -175561.4326 20158.0072 315.9389 0.0000 30698.5789 -117329.7119 298.4732 -148028.2908 -117283.8614 298.4732 -91.4933 -38.4277 501627.0310 -91.4933 -38.4277
ENERGY: 11000 1632.4884 2319.3673 3201.9636 0.0000 -175249.4351 19801.3464 506.1509 0.0000 30901.8050 -116886.3134 300.4491 -147788.1184 -116849.3741 299.4315 -132.2034 -86.6677 501010.8130 10.4718 10.8532
ENERGY: 12000 1562.4036 2287.0215 3184.3620 0.0000 -175048.0388 19990.1607 516.7890 0.0000 30816.4717 -116690.8303 299.6195 -147507.3021 -116649.9888 299.2758 -54.1455 20.3984 503374.4996 12.0708 12.3196
ENERGY: 13000 1563.4096 2310.2957 3165.5464 0.0000 -175481.5610 20135.2510 512.0467 0.0000 30931.6991 -116863.3125 300.7398 -147795.0116 -116823.0408 299.9712 -128.9059 -16.4031 502289.7611 -1.9042 -2.3412
ENERGY: 14000 1552.6651 2385.3377 3190.3154 0.0000 -175598.7043 19966.5754 536.3164 0.0000 31068.7167 -116898.7777 302.0720 -147967.4944 -116855.9014 299.7436 -9.5169 31.9754 499266.7653 -12.2603 -12.5599
ENERGY: 15000 1590.5960 2314.5598 3158.6197 0.0000 -176098.5091 20248.4516 515.5809 0.0000 31072.7679 -117197.9333 302.1113 -148270.7012 -117154.7520 299.6835 11.0470 -0.0727 498768.8251 -4.6302 -4.4092
TCL: Setting parameter constraintScaling to 1.25
TCL: Running for 5000 steps
ETITLE: TS BOND ANGLE DIHED IMPRP ELECT VDW BOUNDARY MISC KINETIC TOTAL TEMP POTENTIAL TOTAL3 TEMPAVG PRESSURE GPRESSURE VOLUME PRESSAVG GPRESSAVG
ENERGY: 15000 1590.5960 2314.5598 3158.6197 0.0000 -176098.5091 20248.4516 257.7905 0.0000 31070.7299 -117457.7618 302.0915 -148528.4917 -117412.8646 302.0915 5.8428 1.4311 498768.8251 5.8428 1.4311
ENERGY: 16000 1618.6617 2385.9900 3196.9143 0.0000 -175621.2897 20030.3313 390.9137 0.0000 30615.5640 -117382.9148 297.6661 -147998.4788 -117342.6536 298.5177 -76.5868 3.8839 498746.0952 -1.6545 -1.7431
ENERGY: 17000 1630.6830 2373.6596 3187.7642 0.0000 -175842.4166 20238.3986 417.2509 0.0000 30850.6387 -117144.0215 299.9517 -147994.6603 -117107.9580 299.7769 -118.1817 -24.2330 499189.6595 -3.2355 -2.7412
ENERGY: 18000 1586.5451 2377.3403 3181.3163 0.0000 -175657.5020 20274.6652 395.8771 0.0000 30810.9982 -117030.7599 299.5662 -147841.7581 -116987.2593 300.3792 -75.5839 -23.1020 499651.0614 10.9907 11.4723
ENERGY: 19000 1609.9045 2449.3582 3208.6644 0.0000 -175343.4924 19859.2551 410.0600 0.0000 30813.6510 -116992.5993 299.5920 -147806.2503 -116944.4817 300.0771 12.1589 27.9150 499831.7092 11.6773 11.8951
ENERGY: 20000 1579.8093 2358.9544 3195.6410 0.0000 -175846.1615 20192.2457 428.6061 0.0000 30708.1941 -117382.7110 298.5667 -148090.9050 -117331.6604 300.4789 -96.5014 -0.0709 499165.2874 -3.8181 -3.3610
TCL: Setting parameter constraintScaling to 0.625
TCL: Running for 5000 steps
ETITLE: TS BOND ANGLE DIHED IMPRP ELECT VDW BOUNDARY MISC KINETIC TOTAL TEMP POTENTIAL TOTAL3 TEMPAVG PRESSURE GPRESSURE VOLUME PRESSAVG GPRESSAVG
ENERGY: 20000 1579.8093 2358.9544 3195.6410 0.0000 -175846.1615 20192.2457 214.3030 0.0000 30706.1634 -117599.0447 298.5470 -148305.2081 -117551.9400 298.5470 -99.2975 -5.5850 499165.2874 -99.2975 -5.5850
ENERGY: 21000 1645.8917 2372.4592 3163.6330 0.0000 -175788.4827 20150.8060 317.8205 0.0000 30771.6164 -117366.2559 299.1833 -148137.8723 -117315.8528 299.7280 -83.9857 -52.1442 500269.8349 -2.6620 -2.2623
ENERGY: 22000 1593.7540 2366.2055 3189.1656 0.0000 -175943.9531 20030.8610 303.9275 0.0000 31131.6073 -117328.4322 302.6834 -148460.0395 -117280.3439 300.1759 49.9034 106.1486 498624.2379 3.5768 3.5651
ENERGY: 23000 1635.9616 2354.8363 3216.7579 0.0000 -175814.2853 20055.3735 314.9276 0.0000 30722.9294 -117513.4991 298.7100 -148236.4285 -117482.1979 299.8419 -44.0359 -28.7116 497691.8570 -1.7250 -1.4561
ENERGY: 24000 1713.9549 2378.5004 3198.8794 0.0000 -175539.0072 19774.5467 306.2655 0.0000 30924.5532 -117242.3071 300.6703 -148166.8603 -117195.1032 299.9798 -106.0879 -65.4745 498230.8494 2.3359 2.6327
ENERGY: 25000 1649.0585 2419.9043 3205.7668 0.0000 -176028.5317 20093.1528 293.5781 0.0000 30709.0044 -117658.0668 298.5746 -148367.0712 -117606.0978 299.0520 -36.7037 18.5684 497951.9373 4.9220 5.0609
TCL: Setting parameter constraintScaling to 0.3125
TCL: Running for 5000 steps
ETITLE: TS BOND ANGLE DIHED IMPRP ELECT VDW BOUNDARY MISC KINETIC TOTAL TEMP POTENTIAL TOTAL3 TEMPAVG PRESSURE GPRESSURE VOLUME PRESSAVG GPRESSAVG
ENERGY: 25000 1649.0585 2419.9043 3205.7668 0.0000 -176028.5317 20093.1528 146.7890 0.0000 30706.9552 -117806.9050 298.5547 -148513.8602 -117762.4683 298.5547 -58.7597 -16.9115 497951.9373 -58.7597 -16.9115
ENERGY: 26000 1651.8352 2428.6092 3193.2827 0.0000 -176125.9753 20141.9510 248.2788 0.0000 30524.3767 -117937.6418 296.7795 -148462.0185 -117887.5436 297.3167 -125.2474 -26.1657 498492.0464 8.2284 8.7808
ENERGY: 27000 1646.3981 2436.7236 3223.8948 0.0000 -175740.4892 20155.2792 246.6546 0.0000 30855.1599 -117176.3790 299.9956 -148031.5389 -117128.5401 299.4114 -9.9739 24.3752 499202.1467 0.6705 0.5811
ENERGY: 28000 1608.8835 2428.9843 3232.1529 0.0000 -175350.3953 20113.2924 244.9657 0.0000 30861.0068 -116861.1096 300.0525 -147722.1164 -116817.6560 300.4767 -29.9874 -69.8462 501181.8086 2.6280 2.0291
ENERGY: 29000 1621.3325 2407.0711 3198.4745 0.0000 -175794.0366 20231.3142 235.2175 0.0000 30909.1217 -117191.5051 300.5203 -148100.6268 -117136.5539 299.9878 52.5163 93.4408 499203.1732 -14.7672 -14.6894
ENERGY: 30000 1579.6598 2416.8466 3200.4506 0.0000 -175596.8618 19841.5991 241.7102 0.0000 30976.0172 -117340.5783 301.1707 -148316.5955 -117297.4235 300.6976 -79.7944 -32.9905 497838.9750 -6.3907 -6.5145
TCL: Setting parameter constraintScaling to 0.15625
TCL: Running for 5000 steps
ETITLE: TS BOND ANGLE DIHED IMPRP ELECT VDW BOUNDARY MISC KINETIC TOTAL TEMP POTENTIAL TOTAL3 TEMPAVG PRESSURE GPRESSURE VOLUME PRESSAVG GPRESSAVG
ENERGY: 30000 1579.6598 2416.8466 3200.4506 0.0000 -175596.8618 19841.5991 120.8551 0.0000 30973.9724 -117463.4782 301.1508 -148437.4506 -117416.6423 301.1508 -145.3150 -94.9396 497838.9750 -145.3150 -94.9396
ENERGY: 31000 1631.3177 2426.2015 3205.1618 0.0000 -175894.6208 20040.7753 182.4806 0.0000 30918.0023 -117490.6816 300.6066 -148408.6839 -117440.2092 300.2292 -71.9830 -66.4311 496858.0968 -17.5983 -16.6032
ENERGY: 32000 1692.0306 2420.3827 3217.3209 0.0000 -176022.3665 20246.0387 172.6541 0.0000 30546.0822 -117727.8572 296.9905 -148273.9394 -117688.9070 299.5849 -6.8375 52.4721 498238.5201 2.1447 1.5924
ENERGY: 33000 1596.8012 2406.8751 3237.2160 0.0000 -176218.8952 20100.5944 196.3192 0.0000 31053.9880 -117627.1014 301.9288 -148681.0894 -117576.7397 299.4373 -128.6213 -49.2234 497678.0931 -3.7413 -3.7371
ENERGY: 34000 1649.9884 2433.4564 3224.2220 0.0000 -175705.8716 19939.7148 202.8724 0.0000 30609.8597 -117645.7579 297.6106 -148255.6176 -117588.7181 298.9794 -119.8929 -1.7224 497156.6425 -10.4310 -10.6796
ENERGY: 35000 1684.7151 2438.0286 3223.8599 0.0000 -175751.2062 19983.7101 209.9670 0.0000 30711.0970 -117499.8284 298.5949 -148210.9254 -117454.6819 299.2467 85.8545 94.6407 496335.9841 -8.9439 -8.6529
TCL: Setting parameter constraintScaling to 0.078125
TCL: Running for 5000 steps
ETITLE: TS BOND ANGLE DIHED IMPRP ELECT VDW BOUNDARY MISC KINETIC TOTAL TEMP POTENTIAL TOTAL3 TEMPAVG PRESSURE GPRESSURE VOLUME PRESSAVG GPRESSAVG
ENERGY: 35000 1684.7151 2438.0286 3223.8599 0.0000 -175751.2062 19983.7101 104.9835 0.0000 30709.0483 -117606.8605 298.5750 -148315.9089 -117565.0067 298.5750 56.5097 64.8616 496335.9841 56.5097 64.8616
ENERGY: 36000 1640.0780 2307.5853 3232.3073 0.0000 -176190.8069 20122.4938 139.6124 0.0000 31007.0194 -117741.7107 301.4721 -148748.7301 -117690.7972 299.2196 -11.0788 -24.1552 495605.5353 -9.5179 -9.1629
ENERGY: 37000 1643.7073 2386.5589 3213.3864 0.0000 -175631.4430 19887.8483 162.2203 0.0000 30625.0634 -117712.6585 297.7584 -148337.7219 -117676.8685 300.5424 50.6581 45.3887 496425.8151 4.8847 4.7079
ENERGY: 38000 1650.2210 2410.7764 3200.0653 0.0000 -175669.5681 20071.4592 161.7480 0.0000 31100.1758 -117075.1224 302.3778 -148175.2982 -117030.3923 300.9864 57.9287 50.6711 496775.9118 0.1691 -0.3297
ENERGY: 39000 1633.6829 2413.4688 3230.7739 0.0000 -176025.9908 20188.9948 159.4902 0.0000 30923.6614 -117475.9188 300.6616 -148399.5802 -117432.0602 299.8193 -47.0230 70.2301 497150.5980 4.3319 3.9092
ENERGY: 40000 1651.4588 2394.4224 3161.4932 0.0000 -175208.3037 19833.6126 171.9609 0.0000 30920.3330 -117075.0226 300.6293 -147995.3556 -117031.4389 300.8552 6.0475 -6.2453 497198.9230 1.8542 1.7196
TCL: Setting parameter constraintScaling to 0.0390625
TCL: Running for 5000 steps
ETITLE: TS BOND ANGLE DIHED IMPRP ELECT VDW BOUNDARY MISC KINETIC TOTAL TEMP POTENTIAL TOTAL3 TEMPAVG PRESSURE GPRESSURE VOLUME PRESSAVG GPRESSAVG
ENERGY: 40000 1651.4588 2394.4224 3161.4932 0.0000 -175208.3036 19833.6126 85.9805 0.0000 30918.3100 -117163.0261 300.6096 -148081.3361 -117121.5363 300.6096 -3.9342 -19.6053 497198.9230 -3.9342 -19.6053
ENERGY: 41000 1652.1313 2422.4497 3205.0271 0.0000 -175643.1035 20145.5835 106.9404 0.0000 30755.5743 -117355.3972 299.0274 -148110.9715 -117312.9097 300.2532 -52.0180 -15.2803 498814.0518 9.1350 8.5414
ENERGY: 42000 1641.1371 2426.3241 3211.0662 0.0000 -176141.4972 20196.6281 99.4289 0.0000 30773.6577 -117793.2551 299.2032 -148566.9128 -117740.7817 299.5057 -16.2857 -39.2368 497892.6968 -2.0420 -1.6908
ENERGY: 43000 1637.9730 2400.5697 3203.0339 0.0000 -175935.8426 20045.4683 110.5957 0.0000 30923.0689 -117615.1332 300.6559 -148538.2021 -117565.5689 299.2648 -30.4137 33.2829 497949.0164 11.9925 11.9182
ENERGY: 44000 1574.7781 2422.5423 3209.7946 0.0000 -175918.3922 19998.3314 111.0077 0.0000 30787.6074 -117814.3307 299.3388 -148601.9381 -117769.0418 300.0323 65.8997 58.5121 497383.0689 -4.0868 -4.0115
ENERGY: 45000 1643.1427 2379.0302 3169.9748 0.0000 -176342.8049 20226.6267 114.2538 0.0000 30942.1172 -117867.6594 300.8411 -148809.7767 -117819.8213 298.9031 38.0090 4.3652 496707.0082 0.8921 0.7571
TCL: Setting parameter constraintScaling to 0.01953125
TCL: Running for 5000 steps
ETITLE: TS BOND ANGLE DIHED IMPRP ELECT VDW BOUNDARY MISC KINETIC TOTAL TEMP POTENTIAL TOTAL3 TEMPAVG PRESSURE GPRESSURE VOLUME PRESSAVG GPRESSAVG
ENERGY: 45000 1643.1427 2379.0302 3169.9748 0.0000 -176342.8049 20226.6267 57.1269 0.0000 30940.0601 -117926.8434 300.8211 -148866.9036 -117883.7671 300.8211 33.6278 2.5871 496707.0082 33.6278 2.5871
ENERGY: 46000 1646.9002 2428.1513 3215.4449 0.0000 -176032.0128 20009.5644 73.5075 0.0000 30861.6491 -117796.7953 300.0587 -148658.4444 -117746.4705 300.5479 -41.2068 -24.2000 495626.7122 -5.5565 -5.8947
ENERGY: 47000 1654.2765 2417.0117 3187.9041 0.0000 -175602.0442 19902.1491 77.0475 0.0000 30854.5087 -117509.1465 299.9893 -148363.6553 -117452.3106 299.3484 19.5809 4.7095 496086.6548 1.6255 1.5394
ENERGY: 48000 1607.0764 2346.4293 3198.3290 0.0000 -175945.0639 20096.4084 79.7368 0.0000 30558.2901 -118058.7940 297.1092 -148617.0841 -118007.4012 299.5405 51.8080 80.4713 497173.4913 -3.7992 -4.2400
ENERGY: 49000 1603.1807 2476.7376 3243.9461 0.0000 -176676.4319 20096.5461 84.8725 0.0000 30583.9612 -118587.1878 297.3588 -149171.1491 -118540.4185 297.7838 -37.6381 41.3289 496146.4909 -12.0257 -11.8592
ENERGY: 50000 1627.9658 2415.0668 3221.0509 0.0000 -176781.6964 20406.4549 91.3551 0.0000 30616.1213 -118403.6816 297.6715 -149019.8029 -118364.7046 297.4363 19.3152 152.2023 496604.0728 2.6555 2.6631
TCL: Setting parameter constraintScaling to 0
TCL: Running for 5000 steps
ETITLE: TS BOND ANGLE DIHED IMPRP ELECT VDW BOUNDARY MISC KINETIC TOTAL TEMP POTENTIAL TOTAL3 TEMPAVG PRESSURE GPRESSURE VOLUME PRESSAVG GPRESSAVG
ENERGY: 50000 1627.9658 2415.0668 3221.0509 0.0000 -176781.6964 20406.4549 0.0000 0.0000 30614.0927 -118497.0653 297.6518 -149111.1580 -118453.4167 297.6518 -10.1065 125.1818 496604.0728 -10.1065 125.1818
ENERGY: 51000 1629.9904 2398.4593 3207.0025 0.0000 -176013.9943 20110.3360 0.0000 0.0000 31051.7440 -117616.4622 301.9069 -148668.2062 -117573.2300 299.8526 -38.7727 33.1685 496027.9848 -0.6929 -0.3550
ENERGY: 52000 1679.7435 2407.2291 3200.0777 0.0000 -176235.0946 20161.3123 0.0000 0.0000 30829.1650 -117957.5670 299.7429 -148786.7320 -117911.4925 299.4082 51.0937 121.1796 495255.5528 1.6274 1.8068
ENERGY: 53000 1629.2615 2374.6566 3214.3760 0.0000 -175724.7033 19931.7158 0.0000 0.0000 30769.6682 -117805.0252 299.1644 -148574.6933 -117759.4518 299.3402 -90.3732 -79.9504 496232.0286 9.5709 9.8842
ENERGY: 54000 1646.1547 2449.6960 3242.1669 0.0000 -176119.9504 19988.5130 0.0000 0.0000 30799.9158 -117993.5039 299.4585 -148793.4197 -117941.9610 299.2021 -66.4544 8.6268 496193.1228 15.1591 15.2881
ENERGY: 55000 1594.1631 2377.1288 3242.3290 0.0000 -176419.1696 20385.8317 0.0000 0.0000 30609.8410 -118209.8759 297.6104 -148819.7170 -118165.3932 299.1848 5.2557 48.8116 496502.7211 -0.2625 0.2816
