Info: SIMULATION PARAMETERS:
Info: TIMESTEP               1
Info: NUMBER OF STEPS        0
Info: STEPS PER CYCLE        10
Info: PERIODIC CELL BASIS 1  72.449 0 0
Info: PERIODIC CELL BASIS 2  0 93.247 0
Info: PERIODIC CELL BASIS 3  0 0 79.185
Info: PERIODIC CELL CENTER   -0.248 -0.156 -0.047
Info: WRAPPING WATERS AROUND PERIODIC BOUNDARIES ON OUTPUT.
Info: WRAPPING ALL CLUSTERS AROUND PERIODIC BOUNDARIES ON OUTPUT.
Info: FIRST LDB TIMESTEP     50
Info: LAST LDB TIMESTEP     -1
Info: HOM BACKGROUND SCALING 1
Info: PME BACKGROUND SCALING 1
Info: MIN ATOMS PER PATCH    40
Info: VELOCITY FILE          ../replicas/rep44/equilibration/eq1.vel
Info: CENTER OF MASS MOVING INITIALLY? NO
Info: DIELECTRIC             1
Info: EXCLUDE                SCALED ONE-FOUR
Info: 1-4 ELECTROSTATICS SCALED BY 0.833333
Info: MODIFIED 1-4 VDW PARAMETERS WILL BE USED
Info: DCD FILENAME           ../replicas/rep44/equilibration/eq2.dcd
Info: DCD FREQUENCY          5000
Info: DCD FIRST STEP         5000
Info: DCD FILE WILL CONTAIN UNIT CELL DATA
Info: XST FILENAME           ../replicas/rep44/equilibration/eq2.xst
Info: XST FREQUENCY          5000
Info: NO VELOCITY DCD OUTPUT
Info: NO FORCE DCD OUTPUT
Info: OUTPUT FILENAME        ../replicas/rep44/equilibration/eq2
Info: RESTART FILENAME       ../replicas/rep44/equilibration/eq2.restart
Info: RESTART FREQUENCY      5000
Info: BINARY RESTART FILES WILL BE USED
Info: SWITCHING ACTIVE
Info: SWITCHING ON           10
Info: SWITCHING OFF          12
Info: PAIRLIST DISTANCE      13.5
Info: PAIRLIST SHRINK RATE   0.01
Info: PAIRLIST GROW RATE     0.01
Info: PAIRLIST TRIGGER       0.3
Info: PAIRLISTS PER CYCLE    2
Info: PAIRLISTS ENABLED
Info: MARGIN                 0.48
Info: HYDROGEN GROUP CUTOFF  2.5
Info: PATCH DIMENSION        16.48
Info: ENERGY OUTPUT STEPS    500
Info: CROSSTERM ENERGY INCLUDED IN DIHEDRAL
Info: TIMING OUTPUT STEPS    5000
Info: PRESSURE OUTPUT STEPS  500
Info: HARMONIC CONSTRAINTS ACTIVE
Info: HARMONIC CONS EXP      2
Info: HARMONIC CONS SCALING  10
Info: LANGEVIN DYNAMICS ACTIVE
Info: LANGEVIN TEMPERATURE   300
Info: LANGEVIN USING BBK INTEGRATOR
Info: LANGEVIN DAMPING COEFFICIENT IS 5 INVERSE PS
Info: LANGEVIN DYNAMICS NOT APPLIED TO HYDROGENS
Info: BERENDSEN PRESSURE COUPLING ACTIVE
Info:     TARGET PRESSURE IS 1 BAR
Info:     COMPRESSIBILITY ESTIMATE IS 4.57e-05 BAR^(-1)
Info:     RELAXATION TIME IS 100 FS
Info:     APPLIED EVERY 2 STEPS
Info:     PRESSURE CONTROL IS GROUP-BASED
Info:       CELL FLUCTUATION IS ISOTROPIC
Info: PARTICLE MESH EWALD (PME) ACTIVE
Info: PME TOLERANCE               1e-06
Info: PME EWALD COEFFICIENT       0.257952
Info: PME INTERPOLATION ORDER     4
Info: PME GRID DIMENSIONS         80 96 80
Info: PME MAXIMUM GRID SPACING    1
Info: FULL ELECTROSTATIC EVALUATION FREQUENCY      2
Info: USING VERLET I (r-RESPA) MTS SCHEME.
Info: C1 SPLITTING OF LONG RANGE ELECTROSTATICS
Info: PLACING ATOMS IN PATCHES BY HYDROGEN GROUPS
Info: RIGID BONDS TO HYDROGEN : WATER
Info:         ERROR TOLERANCE : 1e-05
Info:          MAX ITERATIONS : 100
Info: RIGID WATER USING SETTLE ALGORITHM
Info: RANDOM NUMBER SEED     1503694161
Info: USE HYDROGEN BONDS?    NO
Info: Using AMBER format force field!
Info: AMBER PARM FILE        ../build/complex.top
Info: COORDINATE PDB         ../replicas/rep44/equilibration/eq1.coor
Info: Exclusions in PARM file will be ignored!
Info: SCNB (VDW SCALING)     2
Info: USING ARITHMETIC MEAN TO COMBINE L-J SIGMA PARAMETERS
Info: SUMMARY OF PARAMETERS:
Info: 71 BONDS
Info: 145 ANGLES
Info:   145 HARMONIC
Info:   0 COSINE-BASED
Info: 76 DIHEDRAL
Info: 0 IMPROPER
Info: 0 CROSSTERM
Info: 0 VDW
Info: 190 VDW_PAIRS
Info: 0 NBTHOLE_PAIRS
Info: STRUCTURE SUMMARY:
Info: 49394 ATOMS
Info: 49448 BONDS
Info: 8698 ANGLES
Info: 18780 DIHEDRALS
Info: 0 IMPROPERS
Info: 0 CROSSTERMS
Info: 0 EXCLUSIONS
Info: 2336 CONSTRAINTS
Info: 44667 RIGID BONDS
Info: 103515 DEGREES OF FREEDOM
Info: 17225 HYDROGEN GROUPS
Info: 4 ATOMS IN LARGEST HYDROGEN GROUP
Info: 17225 MIGRATION GROUPS
Info: 4 ATOMS IN LARGEST MIGRATION GROUP
Info: TOTAL MASS = 301478 amu
Info: TOTAL CHARGE = 1.00115e-05 e
Info: MASS DENSITY = 0.935846 g/cm^3
Info: ATOM DENSITY = 0.0923345 atoms/A^3
Info: ADDED 70656 IMPLICIT EXCLUSIONS
Info: NONBONDED TABLE R-SQUARED SPACING: 0.0625
Info: NONBONDED TABLE SIZE: 769 POINTS
Info: REMOVING COM VELOCITY -0.0265151 0.00840652 -0.0110112
TCL: Running for 5000 steps
ETITLE: TS BOND ANGLE DIHED IMPRP ELECT VDW BOUNDARY MISC KINETIC TOTAL TEMP POTENTIAL TOTAL3 TEMPAVG PRESSURE GPRESSURE VOLUME PRESSAVG GPRESSAVG
ENERGY: 0 378.7262 1214.6223 2910.1180 0.0000 -212609.0555 29420.3659 0.0000 0.0000 10075.3327 -168609.8904 97.9595 -178685.2231 -168600.2847 97.9595 -2371.4767 -2466.9062 534946.2959 -2371.4767 -2466.9062
ENERGY: 1000 1237.6832 2019.6541 3093.3276 0.0000 -193740.9300 26506.1853 785.8453 0.0000 23813.1115 -136285.1229 231.5279 -160098.2344 -136261.2731 217.2874 3.1427 -1.2687 522729.3905 -5.1813 -5.2210
ENERGY: 2000 1417.5377 2124.9924 3175.4081 0.0000 -184094.7109 23266.0370 765.4328 0.0000 27679.0295 -125666.2735 269.1150 -153345.3030 -125618.1359 263.1898 23.8098 -39.1342 516512.0285 -20.1480 -20.6218
ENERGY: 3000 1527.5442 2229.6319 3161.6428 0.0000 -179428.6460 21835.2659 799.6073 0.0000 29510.5319 -120364.4219 286.9222 -149874.9538 -120327.7992 284.0853 -131.9489 -16.9830 510409.9923 -29.1825 -29.3005
ENERGY: 4000 1573.2296 2244.4763 3140.4216 0.0000 -176967.3247 20670.7128 784.1272 0.0000 30388.7356 -118165.6217 295.4607 -148554.3572 -118132.0079 293.7732 -59.8415 -45.2179 507016.5271 -4.3240 -3.9583
ENERGY: 5000 1619.0183 2232.4594 3109.1892 0.0000 -176307.3861 20530.8708 813.1000 0.0000 30418.5588 -117584.1897 295.7507 -148002.7485 -117531.2255 296.2007 16.9134 -16.5868 504893.7622 1.7395 1.8982
TCL: Setting parameter constraintScaling to 5.0
TCL: Running for 5000 steps
ETITLE: TS BOND ANGLE DIHED IMPRP ELECT VDW BOUNDARY MISC KINETIC TOTAL TEMP POTENTIAL TOTAL3 TEMPAVG PRESSURE GPRESSURE VOLUME PRESSAVG GPRESSAVG
ENERGY: 5000 1619.0183 2232.4594 3109.1892 0.0000 -176307.3861 20530.8708 406.5500 0.0000 30416.5133 -117992.7852 295.7308 -148409.2985 -117947.2035 295.7308 -42.4646 -73.2483 504893.7622 -42.4646 -73.2483
ENERGY: 6000 1623.7805 2320.0110 3169.3190 0.0000 -175926.7042 20206.0101 664.0562 0.0000 30503.3039 -117440.2235 296.5746 -147943.5273 -117395.7812 297.0314 -85.0593 -27.9951 503844.8163 -4.6463 -4.9277
ENERGY: 7000 1601.1474 2282.0490 3171.8318 0.0000 -175735.6003 19967.3184 618.5104 0.0000 30709.8022 -117384.9412 298.5823 -148094.7435 -117347.2637 297.6128 6.5803 0.5151 501126.7376 -8.3417 -8.2137
ENERGY: 8000 1594.1480 2279.9539 3151.0202 0.0000 -175740.6181 20304.4165 669.8115 0.0000 30692.9323 -117048.3357 298.4183 -147741.2680 -117001.8571 299.4949 -21.0069 -48.5391 501534.4473 3.7994 3.2638
ENERGY: 9000 1544.8368 2320.9311 3177.3206 0.0000 -175911.3582 20380.4539 643.7077 0.0000 30944.2285 -116899.8797 300.8616 -147844.1082 -116849.2589 299.2275 -122.3038 -31.9811 502135.4868 4.8764 5.0024
ENERGY: 10000 1587.6036 2285.9970 3174.2881 0.0000 -174904.5505 19859.5881 634.6501 0.0000 30736.3451 -116626.0783 298.8404 -147362.4235 -116580.6397 300.2810 -49.6159 -10.6814 503469.8031 5.6411 5.3219
TCL: Setting parameter constraintScaling to 2.5
TCL: Running for 5000 steps
ETITLE: TS BOND ANGLE DIHED IMPRP ELECT VDW BOUNDARY MISC KINETIC TOTAL TEMP POTENTIAL TOTAL3 TEMPAVG PRESSURE GPRESSURE VOLUME PRESSAVG GPRESSAVG
ENERGY: 10000 1587.6036 2285.9970 3174.2881 0.0000 -174904.5505 19859.5881 317.3251 0.0000 30734.2931 -116945.4554 298.8205 -147679.7485 -116902.6909 298.8205 -119.6138 -76.8098 503469.8031 -119.6138 -76.8098
ENERGY: 11000 1612.3039 2327.3091 3170.3054 0.0000 -175489.6337 19969.0512 498.5565 0.0000 30705.9667 -117206.1408 298.5450 -147912.1075 -117160.7305 299.2312 -61.3311 -14.5126 501329.7754 -5.6738 -5.6326
ENERGY: 12000 1618.6911 2351.0000 3200.9268 0.0000 -175612.9834 20234.7610 489.3788 0.0000 31153.1438 -116565.0819 302.8928 -147718.2257 -116512.0609 300.2267 -72.3055 -44.4501 501045.9149 7.7562 8.3580
ENERGY: 13000 1622.9629 2375.4912 3168.0988 0.0000 -175572.4651 19888.6419 524.3851 0.0000 30772.7483 -117220.1370 299.1943 -147992.8853 -117193.5693 300.1650 -49.1733 -6.3976 500209.1422 -9.9971 -9.9207
ENERGY: 14000 1597.1404 2350.3101 3198.2049 0.0000 -175795.9408 20162.7309 520.6301 0.0000 30601.0810 -117365.8434 297.5253 -147966.9243 -117319.5097 300.0606 -99.4140 16.3255 500021.6680 -1.6681 -1.7197
ENERGY: 15000 1607.2964 2370.5652 3171.8439 0.0000 -175676.8557 20049.2796 520.5823 0.0000 30620.9224 -117336.3658 297.7182 -147957.2883 -117287.2473 299.1230 -49.8416 -35.6413 499943.0546 2.8849 3.4602
TCL: Setting parameter constraintScaling to 1.25
TCL: Running for 5000 steps
ETITLE: TS BOND ANGLE DIHED IMPRP ELECT VDW BOUNDARY MISC KINETIC TOTAL TEMP POTENTIAL TOTAL3 TEMPAVG PRESSURE GPRESSURE VOLUME PRESSAVG GPRESSAVG
ENERGY: 15000 1607.2964 2370.5652 3171.8439 0.0000 -175676.8557 20049.2796 260.2911 0.0000 30618.8819 -117598.6975 297.6983 -148217.5794 -117555.4150 297.6983 -97.8173 -94.2614 499943.0546 -97.8173 -94.2614
ENERGY: 16000 1580.7765 2408.6129 3215.5708 0.0000 -176080.5737 20393.4592 411.1729 0.0000 30689.1301 -117381.8515 298.3814 -148070.9815 -117331.2299 298.9526 -40.3540 21.0503 499431.8182 1.7084 2.0403
ENERGY: 17000 1642.6501 2372.3999 3219.7010 0.0000 -176034.6684 20441.3778 393.0821 0.0000 30774.3064 -117191.1510 299.2095 -147965.4574 -117150.5819 299.7516 108.7189 56.5403 499538.1431 -1.2245 -0.9352
ENERGY: 18000 1590.4100 2299.8707 3183.3113 0.0000 -175591.9384 20140.5755 395.8856 0.0000 31044.2595 -116937.6257 301.8342 -147981.8852 -116888.9812 300.1251 -25.3905 18.1604 500767.9375 5.3918 6.3239
ENERGY: 19000 1605.0606 2348.4840 3176.5939 0.0000 -175681.7631 20210.8915 412.4587 0.0000 30865.7500 -117062.5244 300.0986 -147928.2744 -117019.9995 299.2481 -70.2653 -11.4094 500644.9110 2.7271 2.2264
ENERGY: 20000 1622.2935 2333.2399 3187.1959 0.0000 -175581.0418 20046.7815 432.5041 0.0000 30619.9605 -117339.0664 297.7088 -147959.0269 -117289.6527 298.6951 20.1224 59.6460 499664.8690 5.2828 4.9398
TCL: Setting parameter constraintScaling to 0.625
TCL: Running for 5000 steps
ETITLE: TS BOND ANGLE DIHED IMPRP ELECT VDW BOUNDARY MISC KINETIC TOTAL TEMP POTENTIAL TOTAL3 TEMPAVG PRESSURE GPRESSURE VOLUME PRESSAVG GPRESSAVG
ENERGY: 20000 1622.2935 2333.2399 3187.1959 0.0000 -175581.0418 20046.7815 216.2520 0.0000 30617.9208 -117557.3582 297.6890 -148175.2790 -117512.7780 297.6890 -6.0240 31.1985 499664.8690 -6.0240 31.1985
ENERGY: 21000 1592.9632 2413.3437 3195.3999 0.0000 -175742.4011 20201.2294 312.7693 0.0000 30869.5890 -117157.1066 300.1359 -148026.6956 -117116.6304 300.4895 -1.9916 26.2893 498676.0185 -18.0442 -18.0965
ENERGY: 22000 1644.9938 2359.5764 3182.0024 0.0000 -175935.4566 20054.3136 317.5044 0.0000 31008.1499 -117368.9161 301.4831 -148377.0660 -117309.8249 299.6482 -136.5402 -86.2586 498940.8781 5.4045 6.0127
ENERGY: 23000 1686.1249 2322.5828 3213.9721 0.0000 -176304.6674 20298.4592 301.9264 0.0000 30827.7493 -117653.8527 299.7291 -148481.6020 -117606.8747 298.8150 9.5581 62.4680 498112.5976 -7.1418 -7.0917
ENERGY: 24000 1644.7205 2409.5523 3154.0922 0.0000 -176119.2225 20195.2818 315.6809 0.0000 30784.4088 -117615.4860 299.3077 -148399.8948 -117570.2935 298.3760 -26.7874 10.0051 499592.4345 4.9390 4.6297
ENERGY: 25000 1598.4093 2355.9724 3190.5435 0.0000 -175785.3985 20019.3140 299.4767 0.0000 30869.0527 -117452.6298 300.1307 -148321.6826 -117414.6599 300.2356 -118.4600 -58.2017 499307.1004 11.0467 11.4143
TCL: Setting parameter constraintScaling to 0.3125
TCL: Running for 5000 steps
ETITLE: TS BOND ANGLE DIHED IMPRP ELECT VDW BOUNDARY MISC KINETIC TOTAL TEMP POTENTIAL TOTAL3 TEMPAVG PRESSURE GPRESSURE VOLUME PRESSAVG GPRESSAVG
ENERGY: 25000 1598.4093 2355.9724 3190.5435 0.0000 -175785.3985 20019.3140 149.7384 0.0000 30867.0084 -117604.4125 300.1108 -148471.4209 -117559.3342 300.1108 -201.9810 -150.8136 499307.1004 -201.9810 -150.8136
ENERGY: 26000 1637.4327 2378.9294 3179.3074 0.0000 -175821.8037 19921.2412 234.3931 0.0000 30771.1585 -117699.3415 299.1789 -148470.4999 -117659.9158 298.7053 -75.9820 -30.2882 497971.0974 -2.7791 -2.3444
ENERGY: 27000 1582.0354 2412.3236 3198.1775 0.0000 -175861.0275 19899.7771 258.6580 0.0000 30847.1106 -117662.9453 299.9173 -148510.0559 -117609.7133 298.7522 -35.7860 -8.1411 497001.2350 -6.7190 -6.8631
ENERGY: 28000 1689.8971 2428.9292 3216.7614 0.0000 -176092.8647 20284.4666 253.5979 0.0000 30345.4845 -117873.7280 295.0402 -148219.2125 -117829.9357 297.4045 3.9847 49.4071 498661.7358 2.0254 2.3342
ENERGY: 29000 1624.7852 2427.4352 3224.4540 0.0000 -176430.9006 20229.3505 248.6170 0.0000 30422.5547 -118253.7039 295.7895 -148676.2586 -118209.8175 297.6683 56.8398 8.5280 497019.9305 -10.0025 -10.1416
ENERGY: 30000 1614.1543 2428.8949 3204.7044 0.0000 -175873.9357 20220.3891 255.4835 0.0000 30674.4261 -117475.8834 298.2384 -148150.3095 -117443.3685 299.1552 12.7488 79.1453 497534.8576 0.9733 0.4340
TCL: Setting parameter constraintScaling to 0.15625
TCL: Running for 5000 steps
ETITLE: TS BOND ANGLE DIHED IMPRP ELECT VDW BOUNDARY MISC KINETIC TOTAL TEMP POTENTIAL TOTAL3 TEMPAVG PRESSURE GPRESSURE VOLUME PRESSAVG GPRESSAVG
ENERGY: 30000 1614.1543 2428.8949 3204.7044 0.0000 -175873.9357 20220.3891 127.7417 0.0000 30672.3621 -117605.6891 298.2183 -148278.0512 -117564.4956 298.2183 -7.8113 46.2465 497534.8576 -7.8113 46.2465
ENERGY: 31000 1670.2726 2411.7036 3198.4733 0.0000 -175812.1713 20090.5425 182.6995 0.0000 30808.3941 -117450.0856 299.5409 -148258.4798 -117421.2837 300.5201 -41.8688 -37.6404 498404.2337 0.7006 0.0557
ENERGY: 32000 1610.5201 2359.3121 3209.8600 0.0000 -175828.7976 20128.2090 203.2839 0.0000 30829.1947 -117488.4178 299.7432 -148317.6124 -117444.1839 300.0250 -83.0107 0.8976 498109.2530 -1.5656 -1.9012
ENERGY: 33000 1663.3120 2407.6881 3189.4970 0.0000 -175652.0563 19972.7946 213.0347 0.0000 30935.1526 -117270.5774 300.7734 -148205.7300 -117228.7719 300.0122 63.7483 47.7187 497187.9333 -4.8554 -4.4061
ENERGY: 34000 1643.3604 2374.1593 3211.7649 0.0000 -176136.0327 20315.6973 202.9911 0.0000 30660.5451 -117727.5146 298.1034 -148388.0597 -117680.4554 298.9215 84.7409 50.5985 497721.0525 2.9545 2.2390
ENERGY: 35000 1648.6881 2427.2771 3209.0026 0.0000 -175816.7598 20036.9025 199.8173 0.0000 30726.6976 -117568.3746 298.7466 -148295.0722 -117536.6808 299.1834 -203.0546 -98.7075 497446.6063 -1.1840 -0.8038
TCL: Setting parameter constraintScaling to 0.078125
TCL: Running for 5000 steps
ETITLE: TS BOND ANGLE DIHED IMPRP ELECT VDW BOUNDARY MISC KINETIC TOTAL TEMP POTENTIAL TOTAL3 TEMPAVG PRESSURE GPRESSURE VOLUME PRESSAVG GPRESSAVG
ENERGY: 35000 1648.6881 2427.2771 3209.0026 0.0000 -175816.7598 20036.9025 99.9087 0.0000 30724.6766 -117670.3042 298.7270 -148394.9809 -117626.7839 298.7270 -222.6486 -128.0848 497446.6063 -222.6486 -128.0848
ENERGY: 36000 1656.8660 2373.3632 3193.1896 0.0000 -175756.6198 20036.4690 148.2460 0.0000 30918.9314 -117429.5545 300.6156 -148348.4858 -117376.3211 300.3887 45.8204 62.9037 497429.6493 7.5041 7.5370
ENERGY: 37000 1616.7588 2396.9195 3179.8296 0.0000 -176192.5788 20188.1941 144.5900 0.0000 30747.4805 -117918.8063 298.9487 -148666.2868 -117873.4866 298.1730 -6.0507 2.3308 498219.3997 1.8188 1.9393
ENERGY: 38000 1573.8812 2390.0909 3191.6402 0.0000 -175972.8064 20111.3623 155.2258 0.0000 30414.8328 -118135.7733 295.7144 -148550.6061 -118099.2974 297.7985 -36.7997 -56.0694 497593.1626 7.3746 7.7936
ENERGY: 39000 1609.3963 2420.7871 3232.5033 0.0000 -175810.3189 20169.5080 175.2720 0.0000 30920.9165 -117281.9356 300.6349 -148202.8521 -117234.5203 299.3243 -53.6492 -59.2316 498782.4275 15.6359 15.4179
ENERGY: 40000 1596.6518 2443.1633 3242.6841 0.0000 -175784.3107 20006.5273 166.8935 0.0000 30994.1999 -117334.1909 301.3475 -148328.3907 -117289.8819 300.1485 -53.6241 -44.9664 498806.2326 0.9137 0.7391
TCL: Setting parameter constraintScaling to 0.0390625
TCL: Running for 5000 steps
ETITLE: TS BOND ANGLE DIHED IMPRP ELECT VDW BOUNDARY MISC KINETIC TOTAL TEMP POTENTIAL TOTAL3 TEMPAVG PRESSURE GPRESSURE VOLUME PRESSAVG GPRESSAVG
ENERGY: 40000 1596.6518 2443.1633 3242.6841 0.0000 -175784.3107 20006.5273 83.4467 0.0000 30992.1529 -117419.6845 301.3276 -148411.8375 -117376.0767 301.3276 -61.3856 -52.7895 498806.2326 -61.3856 -52.7895
ENERGY: 41000 1667.6195 2447.4540 3241.2832 0.0000 -175902.8466 20143.0640 106.0284 0.0000 30804.2359 -117493.1617 299.5005 -148297.3975 -117440.8916 300.1054 -24.1209 26.5814 497911.4394 2.3163 2.3709
ENERGY: 42000 1635.8968 2461.5994 3197.1527 0.0000 -175827.5876 20099.3335 129.5302 0.0000 30711.5391 -117592.5359 298.5992 -148304.0750 -117542.6427 299.9168 28.0909 67.7541 497089.3451 -8.2418 -7.9013
ENERGY: 43000 1594.5038 2368.4456 3234.0483 0.0000 -176496.7047 20391.8525 126.0995 0.0000 31019.2180 -117762.5370 301.5907 -148781.7550 -117719.9649 299.8054 58.6500 47.1511 497668.2297 0.0992 0.2172
ENERGY: 44000 1674.5159 2366.3536 3215.7807 0.0000 -175971.0702 20000.3869 132.0009 0.0000 30606.8305 -117975.2017 297.5812 -148582.0321 -117927.7154 298.9021 -33.7277 1.9053 496916.4649 2.5774 3.6606
ENERGY: 45000 1614.4976 2398.8279 3231.7875 0.0000 -175733.1141 19948.8434 133.5208 0.0000 30767.0436 -117638.5933 299.1389 -148405.6369 -117592.9268 300.1095 -8.1906 8.9937 497546.2514 3.6529 2.9989
TCL: Setting parameter constraintScaling to 0.01953125
TCL: Running for 5000 steps
ETITLE: TS BOND ANGLE DIHED IMPRP ELECT VDW BOUNDARY MISC KINETIC TOTAL TEMP POTENTIAL TOTAL3 TEMPAVG PRESSURE GPRESSURE VOLUME PRESSAVG GPRESSAVG
ENERGY: 45000 1614.4976 2398.8279 3231.7875 0.0000 -175733.1141 19948.8434 66.7604 0.0000 30764.9798 -117707.4175 299.1188 -148472.3973 -117666.6831 299.1188 -26.9625 -4.8008 497546.2514 -26.9625 -4.8008
ENERGY: 46000 1641.0052 2469.1997 3236.9904 0.0000 -175775.1772 19984.2548 85.4640 0.0000 30766.3795 -117591.8835 299.1324 -148358.2630 -117551.1688 300.5923 -45.8303 17.6940 495620.2021 -16.0595 -15.9566
ENERGY: 47000 1668.3808 2452.5219 3222.6148 0.0000 -175726.2966 19971.4587 90.2400 0.0000 30895.0137 -117426.0668 300.3831 -148321.0804 -117381.2360 300.4993 67.8621 13.6781 496345.4781 1.3872 1.3902
ENERGY: 48000 1636.6360 2418.5994 3235.5884 0.0000 -176008.8092 19997.2018 87.3113 0.0000 30977.2682 -117656.2040 301.1828 -148633.4722 -117610.0605 299.7585 -35.3307 -8.2464 495602.8171 0.0108 -0.1074
ENERGY: 49000 1696.0891 2376.8237 3238.2059 0.0000 -176139.8077 20199.4002 90.1733 0.0000 30654.6667 -117884.4488 298.0463 -148539.1155 -117847.4488 298.5882 -32.1297 48.5353 496821.2498 14.7113 13.8681
ENERGY: 50000 1572.7292 2396.8014 3213.1633 0.0000 -176340.0350 20240.7676 89.6429 0.0000 30846.0991 -117980.8317 299.9075 -148826.9307 -117927.9757 298.5512 -27.1388 15.6487 497211.5775 10.8130 10.0059
TCL: Setting parameter constraintScaling to 0
TCL: Running for 5000 steps
ETITLE: TS BOND ANGLE DIHED IMPRP ELECT VDW BOUNDARY MISC KINETIC TOTAL TEMP POTENTIAL TOTAL3 TEMPAVG PRESSURE GPRESSURE VOLUME PRESSAVG GPRESSAVG
ENERGY: 50000 1572.7292 2396.8014 3213.1633 0.0000 -176340.0350 20240.7676 0.0000 0.0000 30844.0683 -118072.5053 299.8878 -148916.5736 -118028.3235 299.8878 -33.4446 5.2984 497211.5775 -33.4446 5.2984
ENERGY: 51000 1644.0524 2351.9785 3221.8042 0.0000 -176088.6779 20143.8938 0.0000 0.0000 30898.0834 -117828.8656 300.4129 -148726.9490 -117777.7545 298.2740 -51.9401 57.4121 497221.5026 12.2056 12.3139
ENERGY: 52000 1635.0963 2436.7567 3195.1450 0.0000 -176007.8678 20043.8957 0.0000 0.0000 30903.2291 -117793.7450 300.4630 -148696.9741 -117751.8702 300.4094 -87.3758 11.2852 496375.3429 3.7999 3.9517
ENERGY: 53000 1603.7799 2449.3560 3184.7701 0.0000 -176200.3406 20238.3255 0.0000 0.0000 30748.8480 -117975.2611 298.9620 -148724.1091 -117933.5572 299.3984 175.3198 110.2496 495175.8127 -8.3162 -7.8170
ENERGY: 54000 1647.1918 2414.9961 3211.4186 0.0000 -176031.6474 20058.9789 0.0000 0.0000 30610.9413 -118088.1207 297.6211 -148699.0620 -118041.7088 300.0181 8.4725 -16.1754 495885.4171 4.5495 4.5776
ENERGY: 55000 1663.3646 2429.9727 3203.0909 0.0000 -176320.3228 20157.7764 0.0000 0.0000 30772.9797 -118093.1386 299.1966 -148866.1183 -118061.9265 299.6077 128.0802 49.9466 496220.1266 0.3117 0.2989
