Info: SIMULATION PARAMETERS:
Info: TIMESTEP               2
Info: NUMBER OF STEPS        0
Info: STEPS PER CYCLE        10
Info: PERIODIC CELL BASIS 1  72.449 0 0
Info: PERIODIC CELL BASIS 2  0 93.247 0
Info: PERIODIC CELL BASIS 3  0 0 79.185
Info: PERIODIC CELL CENTER   -0.248 -0.156 -0.047
Info: WRAPPING WATERS AROUND PERIODIC BOUNDARIES ON OUTPUT.
Info: WRAPPING ALL CLUSTERS AROUND PERIODIC BOUNDARIES ON OUTPUT.
Info: FIRST LDB TIMESTEP     50
Info: LAST LDB TIMESTEP     -1
Info: HOM BACKGROUND SCALING 1
Info: PME BACKGROUND SCALING 1
Info: MIN ATOMS PER PATCH    40
Info: INITIAL TEMPERATURE    0
Info: CENTER OF MASS MOVING INITIALLY? NO
Info: DIELECTRIC             1
Info: EXCLUDE                SCALED ONE-FOUR
Info: 1-4 ELECTROSTATICS SCALED BY 0.833333
Info: MODIFIED 1-4 VDW PARAMETERS WILL BE USED
Info: NO DCD TRAJECTORY OUTPUT
Info: NO EXTENDED SYSTEM TRAJECTORY OUTPUT
Info: NO VELOCITY DCD OUTPUT
Info: NO FORCE DCD OUTPUT
Info: OUTPUT FILENAME        ../replicas/rep71/equilibration/eq0
Info: NO RESTART FILE
Info: SWITCHING ACTIVE
Info: SWITCHING ON           10
Info: SWITCHING OFF          12
Info: PAIRLIST DISTANCE      13.5
Info: PAIRLIST SHRINK RATE   0.01
Info: PAIRLIST GROW RATE     0.01
Info: PAIRLIST TRIGGER       0.3
Info: PAIRLISTS PER CYCLE    2
Info: PAIRLISTS ENABLED
Info: MARGIN                 0
Info: HYDROGEN GROUP CUTOFF  2.5
Info: PATCH DIMENSION        16
Info: ENERGY OUTPUT STEPS    500
Info: CROSSTERM ENERGY INCLUDED IN DIHEDRAL
Info: TIMING OUTPUT STEPS    5000
Info: PRESSURE OUTPUT STEPS  500
Info: HARMONIC CONSTRAINTS ACTIVE
Info: HARMONIC CONS EXP      2
Info: HARMONIC CONS SCALING  10
Info: CONJUGATE GRADIENT MINIMIZATION ACTIVE
Info: LINE MINIMIZATION GOAL = 0.001
Info: BABY STEP SIZE = 0.01
Info: TINY STEP SIZE = 1e-06
Info: PARTICLE MESH EWALD (PME) ACTIVE
Info: PME TOLERANCE               1e-06
Info: PME EWALD COEFFICIENT       0.257952
Info: PME INTERPOLATION ORDER     4
Info: PME GRID DIMENSIONS         80 96 80
Info: PME MAXIMUM GRID SPACING    1
Info: FULL ELECTROSTATIC EVALUATION FREQUENCY      2
Info: USING VERLET I (r-RESPA) MTS SCHEME.
Info: C1 SPLITTING OF LONG RANGE ELECTROSTATICS
Info: PLACING ATOMS IN PATCHES BY HYDROGEN GROUPS
Info: RIGID BONDS TO HYDROGEN : ALL
Info:         ERROR TOLERANCE : 1e-05
Info:          MAX ITERATIONS : 100
Info: RIGID WATER USING SETTLE ALGORITHM
Info: RANDOM NUMBER SEED     1503692292
Info: USE HYDROGEN BONDS?    NO
Info: Using AMBER format force field!
Info: AMBER PARM FILE        ../build/complex.top
Info: COORDINATE PDB         ../build/complex.pdb
Info: Exclusions in PARM file will be ignored!
Info: SCNB (VDW SCALING)     2
Info: USING ARITHMETIC MEAN TO COMBINE L-J SIGMA PARAMETERS
Info: SUMMARY OF PARAMETERS:
Info: 71 BONDS
Info: 145 ANGLES
Info: 76 DIHEDRAL
Info: 0 IMPROPER
Info: 0 CROSSTERM
Info: 0 VDW
Info: 190 VDW_PAIRS
Info: 0 NBTHOLE_PAIRS
Info: STRUCTURE SUMMARY:
Info: 49394 ATOMS
Info: 49448 BONDS
Info: 8698 ANGLES
Info: 18780 DIHEDRALS
Info: 0 IMPROPERS
Info: 0 CROSSTERMS
Info: 0 EXCLUSIONS
Info: 2336 CONSTRAINTS
Info: 47058 RIGID BONDS
Info: 101124 DEGREES OF FREEDOM
Info: 17225 HYDROGEN GROUPS
Info: 4 ATOMS IN LARGEST HYDROGEN GROUP
Info: 17225 MIGRATION GROUPS
Info: 4 ATOMS IN LARGEST MIGRATION GROUP
Info: TOTAL MASS = 301478 amu
Info: TOTAL CHARGE = 1.00115e-05 e
Info: MASS DENSITY = 0.935846 g/cm^3
Info: ATOM DENSITY = 0.0923345 atoms/A^3
Info: ADDED 70656 IMPLICIT EXCLUSIONS
Info: NONBONDED TABLE R-SQUARED SPACING: 0.0625
Info: NONBONDED TABLE SIZE: 769 POINTS
Info: REMOVING COM VELOCITY 0 0 0
TCL: Minimizing for 100 steps
ETITLE: TS BOND ANGLE DIHED IMPRP ELECT VDW BOUNDARY MISC KINETIC TOTAL TEMP POTENTIAL TOTAL3 TEMPAVG PRESSURE GPRESSURE VOLUME PRESSAVG GPRESSAVG
ENERGY: 0 155.4176 1012.2698 2855.7272 0.0000 -154496.7913 207729.2052 0.0468 0.0000 0.0000 57255.8753 0.0000 57255.8753 57255.8753 0.0000 116350.2532 86546.1670 534946.2959 116350.2532 86546.1670
ENERGY: 20 304.7540 935.7910 2893.4663 0.0000 -158672.9397 17936.6598 143.9454 0.0000 0.0000 -136458.3232 0.0000 -136458.3232 -136458.3232 0.0000 16523.9392 -239.4553 534946.2959 16523.9392 -239.4553
ENERGY: 40 198.7424 799.5724 2896.9273 0.0000 -162811.4539 16417.9534 221.3029 0.0000 0.0000 -142276.9555 0.0000 -142276.9555 -142276.9555 0.0000 15011.2701 -2135.4701 534946.2959 15011.2701 -2135.4701
ENERGY: 60 130.5285 715.3440 2898.2166 0.0000 -167496.1554 15446.7542 315.2796 0.0000 0.0000 -147990.0327 0.0000 -147990.0327 -147990.0327 0.0000 13793.8841 -3799.3981 534946.2959 13793.8841 -3799.3981
ENERGY: 80 431.2757 765.6311 2904.3784 0.0000 -169937.5288 15121.1524 372.0122 0.0000 0.0000 -150343.0789 0.0000 -150343.0789 -150343.0789 0.0000 13270.3312 -4577.2449 534946.2959 13270.3312 -4577.2449
ENERGY: 100 129.7149 708.0653 2904.2779 0.0000 -171050.0676 15018.6533 384.1999 0.0000 0.0000 -151905.1563 0.0000 -151905.1563 -151905.1563 0.0000 13092.9126 -4843.6323 534946.2959 13092.9126 -4843.6323
TCL: Setting parameter constraintScaling to 5.0
TCL: Minimizing for 100 steps
ETITLE: TS BOND ANGLE DIHED IMPRP ELECT VDW BOUNDARY MISC KINETIC TOTAL TEMP POTENTIAL TOTAL3 TEMPAVG PRESSURE GPRESSURE VOLUME PRESSAVG GPRESSAVG
ENERGY: 100 129.7149 708.0653 2904.2779 0.0000 -171050.0676 15018.6533 192.1000 0.0000 0.0000 -152097.2563 0.0000 -152097.2563 -152097.2563 0.0000 13703.5078 -22944.4551 534946.2959 13703.5078 -22944.4551
ENERGY: 120 118.6821 680.2877 2909.9066 0.0000 -172396.3164 14830.1204 259.9550 0.0000 0.0000 -153597.3646 0.0000 -153597.3646 -153597.3646 0.0000 13320.9470 -4756.3079 534946.2959 13320.9470 -4756.3079
ENERGY: 140 109.1494 671.1474 2912.0863 0.0000 -174830.2513 14716.1440 337.7303 0.0000 0.0000 -156083.9940 0.0000 -156083.9940 -156083.9940 0.0000 12908.9600 -5423.1445 534946.2959 12908.9600 -5423.1445
ENERGY: 160 125.8539 667.1487 2914.1928 0.0000 -175967.0482 14735.1340 362.9188 0.0000 0.0000 -157161.7999 0.0000 -157161.7999 -157161.7999 0.0000 12806.8966 -5644.5174 534946.2959 12806.8966 -5644.5174
ENERGY: 180 303.5190 659.6785 2917.2964 0.0000 -177408.6619 14815.0114 395.3816 0.0000 0.0000 -158317.7750 0.0000 -158317.7750 -158317.7750 0.0000 12699.3192 -5901.5643 534946.2959 12699.3192 -5901.5643
ENERGY: 200 109.2093 628.4802 2923.3590 0.0000 -179544.0503 15071.1896 441.8883 0.0000 0.0000 -160369.9239 0.0000 -160369.9239 -160369.9239 0.0000 12659.9897 -6162.2640 534946.2959 12659.9897 -6162.2640
TCL: Setting parameter constraintScaling to 2.5
TCL: Minimizing for 100 steps
ETITLE: TS BOND ANGLE DIHED IMPRP ELECT VDW BOUNDARY MISC KINETIC TOTAL TEMP POTENTIAL TOTAL3 TEMPAVG PRESSURE GPRESSURE VOLUME PRESSAVG GPRESSAVG
ENERGY: 200 109.2093 628.4802 2923.3590 0.0000 -179544.0503 15071.1896 220.9441 0.0000 0.0000 -160590.8680 0.0000 -160590.8680 -160590.8680 0.0000 13208.4174 -25281.4248 534946.2959 13208.4174 -25281.4248
ENERGY: 220 275.0654 652.1083 2925.2541 0.0000 -180395.6066 15108.8908 287.9522 0.0000 0.0000 -161146.3358 0.0000 -161146.3358 -161146.3358 0.0000 13000.0494 -5921.5667 534946.2959 13000.0494 -5921.5667
ENERGY: 240 144.5773 629.1050 2922.0963 0.0000 -181650.2443 15308.7223 331.5448 0.0000 0.0000 -162314.1984 0.0000 -162314.1984 -162314.1984 0.0000 12968.5885 -6082.9802 534946.2959 12968.5885 -6082.9802
ENERGY: 260 238.4554 648.2986 2922.1891 0.0000 -183606.9637 15752.0060 409.9557 0.0000 0.0000 -163636.0588 0.0000 -163636.0588 -163636.0588 0.0000 12997.4762 -6272.5287 534946.2959 12997.4762 -6272.5287
ENERGY: 280 182.7206 654.5586 2917.9288 0.0000 -184828.8220 16103.2656 431.0658 0.0000 0.0000 -164539.2826 0.0000 -164539.2826 -164539.2826 0.0000 13136.1771 -6275.6242 534946.2959 13136.1771 -6275.6242
ENERGY: 300 138.3381 658.4962 2924.8200 0.0000 -186105.8443 16514.3100 425.5481 0.0000 0.0000 -165444.3319 0.0000 -165444.3319 -165444.3319 0.0000 13329.3254 -6218.3846 534946.2959 13329.3254 -6218.3846
TCL: Setting parameter constraintScaling to 1.25
TCL: Minimizing for 100 steps
ETITLE: TS BOND ANGLE DIHED IMPRP ELECT VDW BOUNDARY MISC KINETIC TOTAL TEMP POTENTIAL TOTAL3 TEMPAVG PRESSURE GPRESSURE VOLUME PRESSAVG GPRESSAVG
ENERGY: 300 138.3381 658.4962 2924.8200 0.0000 -186105.8443 16514.3100 212.7741 0.0000 0.0000 -165657.1059 0.0000 -165657.1059 -165657.1059 0.0000 13742.2831 -26268.4794 534946.2959 13742.2831 -26268.4794
ENERGY: 320 151.5126 632.8744 2909.7263 0.0000 -186896.0296 16689.8525 269.2502 0.0000 0.0000 -166242.8136 0.0000 -166242.8136 -166242.8136 0.0000 13710.8225 -5933.6421 534946.2959 13710.8225 -5933.6421
ENERGY: 340 200.1241 666.4915 2909.4968 0.0000 -188013.9178 17008.1139 329.0588 0.0000 0.0000 -166900.6327 0.0000 -166900.6327 -166900.6327 0.0000 13711.2759 -6045.7085 534946.2959 13711.2759 -6045.7085
ENERGY: 360 289.3031 722.9355 2909.7015 0.0000 -188875.8485 17314.9104 350.7389 0.0000 0.0000 -167288.2591 0.0000 -167288.2591 -167288.2591 0.0000 13802.1782 -6052.9436 534946.2959 13802.1782 -6052.9436
ENERGY: 380 143.1944 627.5868 2901.1791 0.0000 -189521.9132 17544.1481 351.4794 0.0000 0.0000 -167954.3254 0.0000 -167954.3254 -167954.3254 0.0000 13977.5496 -5955.9277 534946.2959 13977.5496 -5955.9277
ENERGY: 400 151.9372 673.1280 2912.6865 0.0000 -190720.8787 18002.1286 361.3349 0.0000 0.0000 -168619.6636 0.0000 -168619.6636 -168619.6636 0.0000 14166.3657 -5902.2948 534946.2959 14166.3657 -5902.2948
TCL: Setting parameter constraintScaling to 0.625
TCL: Minimizing for 100 steps
ETITLE: TS BOND ANGLE DIHED IMPRP ELECT VDW BOUNDARY MISC KINETIC TOTAL TEMP POTENTIAL TOTAL3 TEMPAVG PRESSURE GPRESSURE VOLUME PRESSAVG GPRESSAVG
ENERGY: 400 151.9372 673.1280 2912.6865 0.0000 -190720.8787 18002.1286 180.6674 0.0000 0.0000 -168800.3310 0.0000 -168800.3310 -168800.3310 0.0000 14450.3728 -26660.5892 534946.2959 14450.3728 -26660.5892
ENERGY: 420 312.7150 723.9049 2901.9389 0.0000 -191264.6469 18152.9354 223.3456 0.0000 0.0000 -168949.8071 0.0000 -168949.8071 -168949.8071 0.0000 14419.3772 -5708.0867 534946.2959 14419.3772 -5708.0867
ENERGY: 440 148.3012 640.8176 2890.3885 0.0000 -191719.2651 18293.9328 233.9448 0.0000 0.0000 -169511.8801 0.0000 -169511.8801 -169511.8801 0.0000 14476.8997 -5698.5609 534946.2959 14476.8997 -5698.5609
ENERGY: 460 146.3192 645.6977 2886.8687 0.0000 -192800.3380 18698.8934 266.1969 0.0000 0.0000 -170156.3622 0.0000 -170156.3622 -170156.3622 0.0000 14635.2502 -5665.9272 534946.2959 14635.2502 -5665.9272
ENERGY: 480 200.0302 685.3975 2896.0841 0.0000 -193333.5543 18881.0693 288.9719 0.0000 0.0000 -170382.0013 0.0000 -170382.0013 -170382.0013 0.0000 14622.2951 -5729.4021 534946.2959 14622.2951 -5729.4021
ENERGY: 500 147.9099 662.7875 2884.4821 0.0000 -194465.1523 19365.1161 289.3250 0.0000 0.0000 -171115.5318 0.0000 -171115.5318 -171115.5318 0.0000 14974.0118 -5511.3173 534946.2959 14974.0118 -5511.3173
TCL: Setting parameter constraintScaling to 0.3125
TCL: Minimizing for 100 steps
ETITLE: TS BOND ANGLE DIHED IMPRP ELECT VDW BOUNDARY MISC KINETIC TOTAL TEMP POTENTIAL TOTAL3 TEMPAVG PRESSURE GPRESSURE VOLUME PRESSAVG GPRESSAVG
ENERGY: 500 147.9099 662.7875 2884.4821 0.0000 -194465.1523 19365.1161 144.6625 0.0000 0.0000 -171260.1943 0.0000 -171260.1943 -171260.1943 0.0000 15162.5730 -26823.7788 534946.2959 15162.5730 -26823.7788
ENERGY: 520 167.8915 680.4327 2890.1125 0.0000 -194899.3139 19482.5715 169.3771 0.0000 0.0000 -171508.9287 0.0000 -171508.9287 -171508.9287 0.0000 15118.5420 -5410.4311 534946.2959 15118.5420 -5410.4311
ENERGY: 540 187.8914 678.5693 2870.4687 0.0000 -196016.8008 19904.9694 206.9484 0.0000 0.0000 -172167.9537 0.0000 -172167.9537 -172167.9537 0.0000 15232.5716 -5417.8291 534946.2959 15232.5716 -5417.8291
ENERGY: 560 204.5771 689.1114 2872.7776 0.0000 -197033.8857 20312.4472 225.0365 0.0000 0.0000 -172729.9360 0.0000 -172729.9360 -172729.9360 0.0000 15436.5801 -5337.6460 534946.2959 15436.5801 -5337.6460
ENERGY: 580 160.1594 664.3304 2863.3561 0.0000 -197201.9109 20379.1848 226.4395 0.0000 0.0000 -172908.4407 0.0000 -172908.4407 -172908.4407 0.0000 15470.7660 -5321.8377 534946.2959 15470.7660 -5321.8377
ENERGY: 600 172.1218 651.3708 2862.6516 0.0000 -198203.2287 20775.2686 226.3686 0.0000 0.0000 -173515.4473 0.0000 -173515.4473 -173515.4473 0.0000 15712.4465 -5202.6810 534946.2959 15712.4465 -5202.6810
TCL: Setting parameter constraintScaling to 0.15625
TCL: Minimizing for 100 steps
ETITLE: TS BOND ANGLE DIHED IMPRP ELECT VDW BOUNDARY MISC KINETIC TOTAL TEMP POTENTIAL TOTAL3 TEMPAVG PRESSURE GPRESSURE VOLUME PRESSAVG GPRESSAVG
ENERGY: 600 172.1218 651.3708 2862.6516 0.0000 -198203.2287 20775.2686 113.1843 0.0000 0.0000 -173628.6316 0.0000 -173628.6316 -173628.6316 0.0000 15836.4032 -27031.7603 534946.2959 15836.4032 -27031.7603
ENERGY: 620 417.7189 750.9286 2860.4858 0.0000 -198828.6562 20974.7928 132.1692 0.0000 0.0000 -173692.5609 0.0000 -173692.5609 -173692.5609 0.0000 15831.4288 -5163.0440 534946.2959 15831.4288 -5163.0440
ENERGY: 640 173.8247 678.2152 2855.8799 0.0000 -199337.9152 21154.7901 143.6599 0.0000 0.0000 -174331.5454 0.0000 -174331.5454 -174331.5454 0.0000 15910.5039 -5131.4726 534946.2959 15910.5039 -5131.4726
ENERGY: 660 167.1788 664.9877 2847.3898 0.0000 -199708.1616 21305.3515 141.1246 0.0000 0.0000 -174582.1291 0.0000 -174582.1291 -174582.1291 0.0000 16033.6213 -5060.2339 534946.2959 16033.6213 -5060.2339
ENERGY: 680 145.4087 646.5917 2861.2835 0.0000 -200384.2101 21619.5929 140.5042 0.0000 0.0000 -174970.8292 0.0000 -174970.8292 -174970.8292 0.0000 16276.0760 -4902.5595 534946.2959 16276.0760 -4902.5595
ENERGY: 700 165.8694 661.3268 2840.3862 0.0000 -200651.3171 21640.1327 154.0278 0.0000 0.0000 -175189.5743 0.0000 -175189.5743 -175189.5743 0.0000 16180.2413 -5011.1587 534946.2959 16180.2413 -5011.1587
TCL: Setting parameter constraintScaling to 0.078125
TCL: Minimizing for 100 steps
ETITLE: TS BOND ANGLE DIHED IMPRP ELECT VDW BOUNDARY MISC KINETIC TOTAL TEMP POTENTIAL TOTAL3 TEMPAVG PRESSURE GPRESSURE VOLUME PRESSAVG GPRESSAVG
ENERGY: 700 165.8694 661.3268 2840.3862 0.0000 -200651.3171 21640.1327 77.0139 0.0000 0.0000 -175266.5882 0.0000 -175266.5882 -175266.5882 0.0000 16254.1322 -27202.4110 534946.2959 16254.1322 -27202.4110
ENERGY: 720 163.7114 647.0318 2840.3609 0.0000 -200822.6833 21703.3607 79.3769 0.0000 0.0000 -175388.8417 0.0000 -175388.8417 -175388.8417 0.0000 16280.7817 -4936.5287 534946.2959 16280.7817 -4936.5287
ENERGY: 740 175.6793 651.7876 2834.8567 0.0000 -201322.4442 21905.4688 84.6842 0.0000 0.0000 -175669.9677 0.0000 -175669.9677 -175669.9677 0.0000 16390.4842 -4887.0110 534946.2959 16390.4842 -4887.0110
ENERGY: 760 166.4316 652.9445 2834.3073 0.0000 -201751.6716 22065.5587 89.4426 0.0000 0.0000 -175942.9869 0.0000 -175942.9869 -175942.9869 0.0000 16438.7372 -4887.3588 534946.2959 16438.7372 -4887.3588
ENERGY: 780 190.9988 665.0619 2831.9812 0.0000 -202098.4679 22192.6444 91.5362 0.0000 0.0000 -176126.2454 0.0000 -176126.2454 -176126.2454 0.0000 16535.7844 -4848.4510 534946.2959 16535.7844 -4848.4510
ENERGY: 800 167.0955 673.8713 2828.7175 0.0000 -203011.9656 22586.9676 98.2521 0.0000 0.0000 -176657.0615 0.0000 -176657.0615 -176657.0615 0.0000 16736.4317 -4756.8223 534946.2959 16736.4317 -4756.8223
TCL: Setting parameter constraintScaling to 0.0390625
TCL: Minimizing for 100 steps
ETITLE: TS BOND ANGLE DIHED IMPRP ELECT VDW BOUNDARY MISC KINETIC TOTAL TEMP POTENTIAL TOTAL3 TEMPAVG PRESSURE GPRESSURE VOLUME PRESSAVG GPRESSAVG
ENERGY: 800 167.0955 673.8713 2828.7175 0.0000 -203011.9656 22586.9676 49.1261 0.0000 0.0000 -176706.1875 0.0000 -176706.1875 -176706.1875 0.0000 16779.4381 -27243.8158 534946.2959 16779.4381 -27243.8158
ENERGY: 820 164.2311 653.5578 2824.9925 0.0000 -203173.1158 22650.5517 50.4700 0.0000 0.0000 -176829.3126 0.0000 -176829.3126 -176829.3126 0.0000 16792.6749 -4708.3825 534946.2959 16792.6749 -4708.3825
ENERGY: 840 175.4076 662.1219 2823.7515 0.0000 -203421.3863 22756.6098 52.0932 0.0000 0.0000 -176951.4022 0.0000 -176951.4022 -176951.4022 0.0000 16820.9500 -4697.9009 534946.2959 16820.9500 -4697.9009
ENERGY: 860 192.6063 667.4933 2823.1079 0.0000 -203723.4769 22875.6976 54.0896 0.0000 0.0000 -177110.4823 0.0000 -177110.4823 -177110.4823 0.0000 16879.1237 -4675.4900 534946.2959 16879.1237 -4675.4900
ENERGY: 880 339.1204 717.2462 2823.3651 0.0000 -204228.8990 23106.9790 57.3684 0.0000 0.0000 -177184.8199 0.0000 -177184.8199 -177184.8199 0.0000 16942.7278 -4676.5728 534946.2959 16942.7278 -4676.5728
ENERGY: 900 181.3591 661.1685 2816.5896 0.0000 -204371.5245 23158.5659 57.2079 0.0000 0.0000 -177496.6333 0.0000 -177496.6333 -177496.6333 0.0000 17059.0902 -4580.7985 534946.2959 17059.0902 -4580.7985
TCL: Setting parameter constraintScaling to 0.01953125
TCL: Minimizing for 100 steps
ETITLE: TS BOND ANGLE DIHED IMPRP ELECT VDW BOUNDARY MISC KINETIC TOTAL TEMP POTENTIAL TOTAL3 TEMPAVG PRESSURE GPRESSURE VOLUME PRESSAVG GPRESSAVG
ENERGY: 900 181.3591 661.1685 2816.5896 0.0000 -204371.5245 23158.5659 28.6040 0.0000 0.0000 -177525.2373 0.0000 -177525.2373 -177525.2373 0.0000 17082.7934 -27259.9837 534946.2959 17082.7934 -27259.9837
ENERGY: 920 206.0588 660.9888 2814.5650 0.0000 -204741.6770 23317.4854 29.9894 0.0000 0.0000 -177712.5897 0.0000 -177712.5897 -177712.5897 0.0000 17124.1645 -4544.5168 534946.2959 17124.1645 -4544.5168
ENERGY: 940 167.0245 651.1124 2813.0097 0.0000 -204845.1631 23360.3021 30.1904 0.0000 0.0000 -177823.5240 0.0000 -177823.5240 -177823.5240 0.0000 17160.0132 -4528.1130 534946.2959 17160.0132 -4528.1130
ENERGY: 960 179.7453 654.7733 2811.2314 0.0000 -205344.9464 23574.6307 31.7975 0.0000 0.0000 -178092.7682 0.0000 -178092.7682 -178092.7682 0.0000 17263.4773 -4481.3752 534946.2959 17263.4773 -4481.3752
ENERGY: 980 175.5436 656.9619 2810.4100 0.0000 -205803.4182 23780.8246 33.4940 0.0000 0.0000 -178346.1840 0.0000 -178346.1840 -178346.1840 0.0000 17378.3301 -4424.4061 534946.2959 17378.3301 -4424.4061
ENERGY: 1000 167.1845 656.7994 2805.5010 0.0000 -206662.8118 24219.3111 36.7969 0.0000 0.0000 -178777.2189 0.0000 -178777.2189 -178777.2189 0.0000 17608.8874 -4290.9630 534946.2959 17608.8874 -4290.9630
TCL: Setting parameter constraintScaling to 0
TCL: Minimizing for 5000 steps
ETITLE: TS BOND ANGLE DIHED IMPRP ELECT VDW BOUNDARY MISC KINETIC TOTAL TEMP POTENTIAL TOTAL3 TEMPAVG PRESSURE GPRESSURE VOLUME PRESSAVG GPRESSAVG
ENERGY: 1000 167.1845 656.7994 2805.5010 0.0000 -206662.8118 24219.3111 0.0000 0.0000 0.0000 -178814.0158 0.0000 -178814.0158 -178814.0158 0.0000 17636.8342 -27245.6313 534946.2959 17636.8342 -27245.6313
ENERGY: 2000 168.3171 661.4051 2801.7217 0.0000 -214795.3593 27730.2799 0.0000 0.0000 0.0000 -183433.6355 0.0000 -183433.6355 -183433.6355 0.0000 19492.6782 -3324.5230 534946.2959 19492.6782 -3324.5230
ENERGY: 3000 167.2402 663.5276 2797.1184 0.0000 -217522.7042 28869.3758 0.0000 0.0000 0.0000 -185025.4421 0.0000 -185025.4421 -185025.4421 0.0000 20101.6246 -2992.2199 534946.2959 20101.6246 -2992.2199
ENERGY: 4000 169.6993 666.2437 2788.9093 0.0000 -218752.7719 29357.2308 0.0000 0.0000 0.0000 -185770.6888 0.0000 -185770.6888 -185770.6888 0.0000 20357.0926 -2876.6998 534946.2959 20357.0926 -2876.6998
ENERGY: 5000 167.5366 665.1076 2783.9793 0.0000 -219340.2292 29569.8099 0.0000 0.0000 0.0000 -186153.7957 0.0000 -186153.7957 -186153.7957 0.0000 20462.0860 -2828.3488 534946.2959 20462.0860 -2828.3488
ENERGY: 6000 167.3323 665.2390 2784.1815 0.0000 -219748.2976 29732.0226 0.0000 0.0000 0.0000 -186399.5223 0.0000 -186399.5223 -186399.5223 0.0000 20545.3256 -2784.9220 534946.2959 20545.3256 -2784.9220
