Info: SIMULATION PARAMETERS:
Info: TIMESTEP               2
Info: NUMBER OF STEPS        0
Info: STEPS PER CYCLE        10
Info: PERIODIC CELL BASIS 1  72.449 0 0
Info: PERIODIC CELL BASIS 2  0 93.247 0
Info: PERIODIC CELL BASIS 3  0 0 79.185
Info: PERIODIC CELL CENTER   -0.248 -0.156 -0.047
Info: WRAPPING WATERS AROUND PERIODIC BOUNDARIES ON OUTPUT.
Info: WRAPPING ALL CLUSTERS AROUND PERIODIC BOUNDARIES ON OUTPUT.
Info: FIRST LDB TIMESTEP     50
Info: LAST LDB TIMESTEP     -1
Info: HOM BACKGROUND SCALING 1
Info: PME BACKGROUND SCALING 1
Info: MIN ATOMS PER PATCH    40
Info: INITIAL TEMPERATURE    0
Info: CENTER OF MASS MOVING INITIALLY? NO
Info: DIELECTRIC             1
Info: EXCLUDE                SCALED ONE-FOUR
Info: 1-4 ELECTROSTATICS SCALED BY 0.833333
Info: MODIFIED 1-4 VDW PARAMETERS WILL BE USED
Info: NO DCD TRAJECTORY OUTPUT
Info: NO EXTENDED SYSTEM TRAJECTORY OUTPUT
Info: NO VELOCITY DCD OUTPUT
Info: NO FORCE DCD OUTPUT
Info: OUTPUT FILENAME        ../replicas/rep117/equilibration/eq0
Info: NO RESTART FILE
Info: SWITCHING ACTIVE
Info: SWITCHING ON           10
Info: SWITCHING OFF          12
Info: PAIRLIST DISTANCE      13.5
Info: PAIRLIST SHRINK RATE   0.01
Info: PAIRLIST GROW RATE     0.01
Info: PAIRLIST TRIGGER       0.3
Info: PAIRLISTS PER CYCLE    2
Info: PAIRLISTS ENABLED
Info: MARGIN                 0
Info: HYDROGEN GROUP CUTOFF  2.5
Info: PATCH DIMENSION        16
Info: ENERGY OUTPUT STEPS    500
Info: CROSSTERM ENERGY INCLUDED IN DIHEDRAL
Info: TIMING OUTPUT STEPS    5000
Info: PRESSURE OUTPUT STEPS  500
Info: HARMONIC CONSTRAINTS ACTIVE
Info: HARMONIC CONS EXP      2
Info: HARMONIC CONS SCALING  10
Info: CONJUGATE GRADIENT MINIMIZATION ACTIVE
Info: LINE MINIMIZATION GOAL = 0.001
Info: BABY STEP SIZE = 0.01
Info: TINY STEP SIZE = 1e-06
Info: PARTICLE MESH EWALD (PME) ACTIVE
Info: PME TOLERANCE               1e-06
Info: PME EWALD COEFFICIENT       0.257952
Info: PME INTERPOLATION ORDER     4
Info: PME GRID DIMENSIONS         80 96 80
Info: PME MAXIMUM GRID SPACING    1
Info: FULL ELECTROSTATIC EVALUATION FREQUENCY      2
Info: USING VERLET I (r-RESPA) MTS SCHEME.
Info: C1 SPLITTING OF LONG RANGE ELECTROSTATICS
Info: PLACING ATOMS IN PATCHES BY HYDROGEN GROUPS
Info: RIGID BONDS TO HYDROGEN : ALL
Info:         ERROR TOLERANCE : 1e-05
Info:          MAX ITERATIONS : 100
Info: RIGID WATER USING SETTLE ALGORITHM
Info: RANDOM NUMBER SEED     1503691734
Info: USE HYDROGEN BONDS?    NO
Info: Using AMBER format force field!
Info: AMBER PARM FILE        ../build/complex.top
Info: COORDINATE PDB         ../build/complex.pdb
Info: Exclusions in PARM file will be ignored!
Info: SCNB (VDW SCALING)     2
Info: USING ARITHMETIC MEAN TO COMBINE L-J SIGMA PARAMETERS
Info: SUMMARY OF PARAMETERS:
Info: 71 BONDS
Info: 145 ANGLES
Info: 76 DIHEDRAL
Info: 0 IMPROPER
Info: 0 CROSSTERM
Info: 0 VDW
Info: 190 VDW_PAIRS
Info: 0 NBTHOLE_PAIRS
Info: STRUCTURE SUMMARY:
Info: 49394 ATOMS
Info: 49448 BONDS
Info: 8698 ANGLES
Info: 18780 DIHEDRALS
Info: 0 IMPROPERS
Info: 0 CROSSTERMS
Info: 0 EXCLUSIONS
Info: 2336 CONSTRAINTS
Info: 47058 RIGID BONDS
Info: 101124 DEGREES OF FREEDOM
Info: 17225 HYDROGEN GROUPS
Info: 4 ATOMS IN LARGEST HYDROGEN GROUP
Info: 17225 MIGRATION GROUPS
Info: 4 ATOMS IN LARGEST MIGRATION GROUP
Info: TOTAL MASS = 301478 amu
Info: TOTAL CHARGE = 1.00115e-05 e
Info: MASS DENSITY = 0.935846 g/cm^3
Info: ATOM DENSITY = 0.0923345 atoms/A^3
Info: ADDED 70656 IMPLICIT EXCLUSIONS
Info: NONBONDED TABLE R-SQUARED SPACING: 0.0625
Info: NONBONDED TABLE SIZE: 769 POINTS
Info: REMOVING COM VELOCITY 0 0 0
TCL: Minimizing for 100 steps
ETITLE: TS BOND ANGLE DIHED IMPRP ELECT VDW BOUNDARY MISC KINETIC TOTAL TEMP POTENTIAL TOTAL3 TEMPAVG PRESSURE GPRESSURE VOLUME PRESSAVG GPRESSAVG
ENERGY: 0 155.4176 1012.2698 2855.7272 0.0000 -154496.7913 207729.2052 0.0468 0.0000 0.0000 57255.8753 0.0000 57255.8753 57255.8753 0.0000 116350.2532 86546.1670 534946.2959 116350.2532 86546.1670
ENERGY: 20 304.7560 935.7912 2893.4663 0.0000 -158672.9414 17936.6590 143.9455 0.0000 0.0000 -136458.3233 0.0000 -136458.3233 -136458.3233 0.0000 16523.9383 -239.4563 534946.2959 16523.9383 -239.4563
ENERGY: 40 198.7440 799.5727 2896.9273 0.0000 -162811.4520 16417.9540 221.3030 0.0000 0.0000 -142276.9510 0.0000 -142276.9510 -142276.9510 0.0000 15011.2707 -2135.4693 534946.2959 15011.2707 -2135.4693
ENERGY: 60 130.5283 715.3440 2898.2166 0.0000 -167496.1545 15446.7543 315.2796 0.0000 0.0000 -147990.0316 0.0000 -147990.0316 -147990.0316 0.0000 13793.8842 -3799.3979 534946.2959 13793.8842 -3799.3979
ENERGY: 80 431.2720 765.6306 2904.3785 0.0000 -169937.5242 15121.1529 372.0122 0.0000 0.0000 -150343.0780 0.0000 -150343.0780 -150343.0780 0.0000 13270.3319 -4577.2428 534946.2959 13270.3319 -4577.2428
ENERGY: 100 119.3871 710.0603 2905.2590 0.0000 -171259.7143 14991.7866 387.3613 0.0000 0.0000 -152145.8599 0.0000 -152145.8599 -152145.8599 0.0000 13056.2650 -4908.1731 534946.2959 13056.2650 -4908.1731
TCL: Setting parameter constraintScaling to 5.0
TCL: Minimizing for 100 steps
ETITLE: TS BOND ANGLE DIHED IMPRP ELECT VDW BOUNDARY MISC KINETIC TOTAL TEMP POTENTIAL TOTAL3 TEMPAVG PRESSURE GPRESSURE VOLUME PRESSAVG GPRESSAVG
ENERGY: 100 119.3871 710.0603 2905.2590 0.0000 -171259.7143 14991.7866 193.6807 0.0000 0.0000 -152339.5406 0.0000 -152339.5406 -152339.5406 0.0000 13672.7711 -23021.8193 534946.2959 13672.7711 -23021.8193
ENERGY: 120 108.8864 687.5856 2912.9268 0.0000 -172865.8784 14798.2708 281.1918 0.0000 0.0000 -154077.0170 0.0000 -154077.0170 -154077.0170 0.0000 13218.2549 -4906.0160 534946.2959 13218.2549 -4906.0160
ENERGY: 140 309.4711 708.8755 2913.8026 0.0000 -174236.5699 14731.4867 326.6364 0.0000 0.0000 -155246.2978 0.0000 -155246.2978 -155246.2978 0.0000 12971.5369 -5303.2207 534946.2959 12971.5369 -5303.2207
ENERGY: 160 265.0234 683.0530 2923.1617 0.0000 -176274.0469 14757.2599 382.8412 0.0000 0.0000 -157262.7077 0.0000 -157262.7077 -157262.7077 0.0000 12741.1216 -5731.7319 534946.2959 12741.1216 -5731.7319
ENERGY: 180 269.0349 744.0926 2928.5661 0.0000 -178994.3670 15023.3411 473.2481 0.0000 0.0000 -159556.0842 0.0000 -159556.0842 -159556.0842 0.0000 12521.6591 -6212.7285 534946.2959 12521.6591 -6212.7285
ENERGY: 200 238.7669 694.1100 2941.3540 0.0000 -181555.5636 15586.8884 546.2535 0.0000 0.0000 -161548.1907 0.0000 -161548.1907 -161548.1907 0.0000 12582.6336 -6420.3539 534946.2959 12582.6336 -6420.3539
TCL: Setting parameter constraintScaling to 2.5
TCL: Minimizing for 100 steps
ETITLE: TS BOND ANGLE DIHED IMPRP ELECT VDW BOUNDARY MISC KINETIC TOTAL TEMP POTENTIAL TOTAL3 TEMPAVG PRESSURE GPRESSURE VOLUME PRESSAVG GPRESSAVG
ENERGY: 200 238.7669 694.1100 2941.3540 0.0000 -181555.5636 15586.8884 273.1267 0.0000 0.0000 -161821.3175 0.0000 -161821.3175 -161821.3175 0.0000 13229.5244 -25651.1011 534946.2959 13229.5244 -25651.1011
ENERGY: 220 246.8034 677.9758 2933.0102 0.0000 -182077.0785 15471.5176 337.8277 0.0000 0.0000 -162409.9437 0.0000 -162409.9437 -162409.9437 0.0000 12970.8732 -6086.9954 534946.2959 12970.8732 -6086.9954
ENERGY: 240 140.4317 666.6593 2928.6096 0.0000 -182465.3447 15494.3114 343.7367 0.0000 0.0000 -162891.5960 0.0000 -162891.5960 -162891.5960 0.0000 13034.1993 -6104.4503 534946.2959 13034.1993 -6104.4503
ENERGY: 260 232.7119 702.5229 2922.5483 0.0000 -183747.9680 15757.5080 379.0420 0.0000 0.0000 -163753.6350 0.0000 -163753.6350 -163753.6350 0.0000 13014.2528 -6234.3046 534946.2959 13014.2528 -6234.3046
ENERGY: 280 203.5776 704.0455 2917.7566 0.0000 -185468.3666 16245.8739 457.3096 0.0000 0.0000 -164939.8034 0.0000 -164939.8034 -164939.8034 0.0000 13144.9502 -6339.4731 534946.2959 13144.9502 -6339.4731
ENERGY: 300 196.0487 659.3870 2920.8040 0.0000 -186580.9060 16642.5721 515.5015 0.0000 0.0000 -165646.5927 0.0000 -165646.5927 -165646.5927 0.0000 13239.8109 -6352.4150 534946.2959 13239.8109 -6352.4150
TCL: Setting parameter constraintScaling to 1.25
TCL: Minimizing for 100 steps
ETITLE: TS BOND ANGLE DIHED IMPRP ELECT VDW BOUNDARY MISC KINETIC TOTAL TEMP POTENTIAL TOTAL3 TEMPAVG PRESSURE GPRESSURE VOLUME PRESSAVG GPRESSAVG
ENERGY: 300 196.0487 659.3870 2920.8040 0.0000 -186580.9060 16642.5721 257.7508 0.0000 0.0000 -165904.3434 0.0000 -165904.3434 -165904.3434 0.0000 13702.7944 -26419.0399 534946.2959 13702.7944 -26419.0399
ENERGY: 320 155.1310 660.4019 2909.1504 0.0000 -187281.6734 16814.9912 287.8161 0.0000 0.0000 -166454.1828 0.0000 -166454.1828 -166454.1828 0.0000 13710.4364 -5956.6842 534946.2959 13710.4364 -5956.6842
ENERGY: 340 160.3543 653.6606 2912.7732 0.0000 -188021.9107 17047.4233 318.3944 0.0000 0.0000 -166929.3049 0.0000 -166929.3049 -166929.3049 0.0000 13764.4461 -5991.2400 534946.2959 13764.4461 -5991.2400
ENERGY: 360 141.9515 656.8531 2914.4695 0.0000 -188884.1716 17361.6695 348.6177 0.0000 0.0000 -167460.6103 0.0000 -167460.6103 -167460.6103 0.0000 13845.1287 -5987.0386 534946.2959 13845.1287 -5987.0386
ENERGY: 380 149.7667 645.7849 2900.0024 0.0000 -189102.5384 17422.1363 345.5663 0.0000 0.0000 -167639.2819 0.0000 -167639.2819 -167639.2819 0.0000 13924.3303 -5953.2824 534946.2959 13924.3303 -5953.2824
ENERGY: 400 184.3893 682.8834 2906.1677 0.0000 -190068.1420 17716.9195 368.2903 0.0000 0.0000 -168209.4918 0.0000 -168209.4918 -168209.4918 0.0000 13983.8612 -6000.0748 534946.2959 13983.8612 -6000.0748
TCL: Setting parameter constraintScaling to 0.625
TCL: Minimizing for 100 steps
ETITLE: TS BOND ANGLE DIHED IMPRP ELECT VDW BOUNDARY MISC KINETIC TOTAL TEMP POTENTIAL TOTAL3 TEMPAVG PRESSURE GPRESSURE VOLUME PRESSAVG GPRESSAVG
ENERGY: 400 184.3893 682.8834 2906.1677 0.0000 -190068.1420 17716.9195 184.1451 0.0000 0.0000 -168393.6369 0.0000 -168393.6369 -168393.6369 0.0000 14271.0962 -26669.3431 534946.2959 14271.0962 -26669.3431
ENERGY: 420 148.0223 645.6563 2898.5874 0.0000 -190330.4409 17799.4105 194.8655 0.0000 0.0000 -168643.8990 0.0000 -168643.8990 -168643.8990 0.0000 14310.1961 -5709.9047 534946.2959 14310.1961 -5709.9047
ENERGY: 440 161.7490 665.3123 2896.0175 0.0000 -191324.8383 18158.2187 238.1870 0.0000 0.0000 -169205.3538 0.0000 -169205.3538 -169205.3538 0.0000 14385.3900 -5732.2395 534946.2959 14385.3900 -5732.2395
ENERGY: 460 492.7956 781.7700 2899.3226 0.0000 -193530.2720 19014.2164 324.7653 0.0000 0.0000 -170017.4021 0.0000 -170017.4021 -170017.4021 0.0000 14622.9427 -5724.8405 534946.2959 14622.9427 -5724.8405
ENERGY: 480 151.9810 656.5602 2880.5930 0.0000 -193625.3407 19038.5388 317.8305 0.0000 0.0000 -170579.8373 0.0000 -170579.8373 -170579.8373 0.0000 14710.0569 -5674.3540 534946.2959 14710.0569 -5674.3540
ENERGY: 500 164.7125 672.8362 2880.8048 0.0000 -193995.9282 19188.2076 306.5167 0.0000 0.0000 -170782.8504 0.0000 -170782.8504 -170782.8504 0.0000 14801.0422 -5614.4417 534946.2959 14801.0422 -5614.4417
TCL: Setting parameter constraintScaling to 0.3125
TCL: Minimizing for 100 steps
ETITLE: TS BOND ANGLE DIHED IMPRP ELECT VDW BOUNDARY MISC KINETIC TOTAL TEMP POTENTIAL TOTAL3 TEMPAVG PRESSURE GPRESSURE VOLUME PRESSAVG GPRESSAVG
ENERGY: 500 164.7125 672.8362 2880.8048 0.0000 -193995.9282 19188.2076 153.2583 0.0000 0.0000 -170936.1087 0.0000 -170936.1087 -170936.1087 0.0000 14997.6544 -26862.7938 534946.2959 14997.6544 -26862.7938
ENERGY: 520 150.7176 650.7245 2880.6313 0.0000 -194192.3448 19225.6096 162.8385 0.0000 0.0000 -171121.8233 0.0000 -171121.8233 -171121.8233 0.0000 14996.4595 -5451.9546 534946.2959 14996.4595 -5451.9546
ENERGY: 540 190.7179 715.7417 2873.6340 0.0000 -194804.5102 19447.5034 179.7288 0.0000 0.0000 -171397.1844 0.0000 -171397.1844 -171397.1844 0.0000 15037.5539 -5470.8362 534946.2959 15037.5539 -5470.8362
ENERGY: 560 155.2944 688.2131 2866.9256 0.0000 -195585.5963 19745.1902 200.3942 0.0000 0.0000 -171929.5788 0.0000 -171929.5788 -171929.5788 0.0000 15191.9293 -5407.6573 534946.2959 15191.9293 -5407.6573
ENERGY: 580 156.7030 656.5451 2872.0354 0.0000 -195711.8977 19780.6414 201.4568 0.0000 0.0000 -172044.5160 0.0000 -172044.5160 -172044.5160 0.0000 15193.2367 -5413.4457 534946.2959 15193.2367 -5413.4457
ENERGY: 600 169.9889 670.4652 2877.8552 0.0000 -195939.8764 19875.5952 200.5130 0.0000 0.0000 -172145.4590 0.0000 -172145.4590 -172145.4590 0.0000 15272.2363 -5374.3161 534946.2959 15272.2363 -5374.3161
TCL: Setting parameter constraintScaling to 0.15625
TCL: Minimizing for 100 steps
ETITLE: TS BOND ANGLE DIHED IMPRP ELECT VDW BOUNDARY MISC KINETIC TOTAL TEMP POTENTIAL TOTAL3 TEMPAVG PRESSURE GPRESSURE VOLUME PRESSAVG GPRESSAVG
ENERGY: 600 169.9889 670.4652 2877.8552 0.0000 -195939.8764 19875.5952 100.2565 0.0000 0.0000 -172245.7155 0.0000 -172245.7155 -172245.7155 0.0000 15387.4895 -26920.9824 534946.2959 15387.4895 -26920.9824
ENERGY: 620 169.1058 649.8405 2868.7488 0.0000 -196124.9451 19933.5896 103.9730 0.0000 0.0000 -172399.6873 0.0000 -172399.6873 -172399.6873 0.0000 15374.1948 -5279.3629 534946.2959 15374.1948 -5279.3629
ENERGY: 640 157.1387 654.1146 2863.5125 0.0000 -196744.9572 20150.3562 115.1360 0.0000 0.0000 -172804.6991 0.0000 -172804.6991 -172804.6991 0.0000 15463.9793 -5267.2366 534946.2959 15463.9793 -5267.2366
ENERGY: 660 165.8828 671.8229 2863.0869 0.0000 -197086.5966 20298.7375 116.5088 0.0000 0.0000 -172970.5577 0.0000 -172970.5577 -172970.5577 0.0000 15566.7683 -5213.2427 534946.2959 15566.7683 -5213.2427
ENERGY: 680 210.9331 741.8334 2870.4402 0.0000 -197735.0505 20572.5171 123.6845 0.0000 0.0000 -173215.6423 0.0000 -173215.6423 -173215.6423 0.0000 15708.6628 -5142.7883 534946.2959 15708.6628 -5142.7883
ENERGY: 700 162.8474 651.7394 2862.6921 0.0000 -197834.8429 20566.6487 127.2302 0.0000 0.0000 -173463.6852 0.0000 -173463.6852 -173463.6852 0.0000 15651.8645 -5196.9149 534946.2959 15651.8645 -5196.9149
TCL: Setting parameter constraintScaling to 0.078125
TCL: Minimizing for 100 steps
ETITLE: TS BOND ANGLE DIHED IMPRP ELECT VDW BOUNDARY MISC KINETIC TOTAL TEMP POTENTIAL TOTAL3 TEMPAVG PRESSURE GPRESSURE VOLUME PRESSAVG GPRESSAVG
ENERGY: 700 162.8474 651.7394 2862.6921 0.0000 -197834.8429 20566.6487 63.6151 0.0000 0.0000 -173527.3003 0.0000 -173527.3003 -173527.3003 0.0000 15718.9237 -27040.4657 534946.2959 15718.9237 -27040.4657
ENERGY: 720 182.1752 666.1479 2858.2834 0.0000 -198223.4093 20702.4782 68.6132 0.0000 0.0000 -173745.7114 0.0000 -173745.7114 -173745.7114 0.0000 15748.5581 -5143.4672 534946.2959 15748.5581 -5143.4672
ENERGY: 740 199.2657 705.6223 2852.3025 0.0000 -199118.0522 21044.5374 77.7975 0.0000 0.0000 -174238.5267 0.0000 -174238.5267 -174238.5267 0.0000 15945.9077 -5080.5396 534946.2959 15945.9077 -5080.5396
ENERGY: 760 162.0531 656.9961 2846.3140 0.0000 -199154.5746 21055.1310 77.7167 0.0000 0.0000 -174356.3637 0.0000 -174356.3637 -174356.3637 0.0000 15926.7123 -5077.6490 534946.2959 15926.7123 -5077.6490
ENERGY: 780 293.7803 726.9687 2853.3161 0.0000 -199529.2042 21207.5594 77.6326 0.0000 0.0000 -174369.9471 0.0000 -174369.9471 -174369.9471 0.0000 16046.0587 -5032.5998 534946.2959 16046.0587 -5032.5998
ENERGY: 800 184.5895 681.8414 2847.1456 0.0000 -200045.2550 21390.1487 81.1576 0.0000 0.0000 -174860.3722 0.0000 -174860.3722 -174860.3722 0.0000 16111.5416 -5008.3489 534946.2959 16111.5416 -5008.3489
TCL: Setting parameter constraintScaling to 0.0390625
TCL: Minimizing for 100 steps
ETITLE: TS BOND ANGLE DIHED IMPRP ELECT VDW BOUNDARY MISC KINETIC TOTAL TEMP POTENTIAL TOTAL3 TEMPAVG PRESSURE GPRESSURE VOLUME PRESSAVG GPRESSAVG
ENERGY: 800 184.5895 681.8414 2847.1456 0.0000 -200045.2550 21390.1487 40.5788 0.0000 0.0000 -174900.9510 0.0000 -174900.9510 -174900.9510 0.0000 16150.7938 -27144.3185 534946.2959 16150.7938 -27144.3185
ENERGY: 820 261.3224 692.7458 2840.7846 0.0000 -200458.1388 21544.6247 44.5822 0.0000 0.0000 -175074.0791 0.0000 -175074.0791 -175074.0791 0.0000 16156.9127 -4997.9610 534946.2959 16156.9127 -4997.9610
ENERGY: 840 167.2238 667.0816 2835.5744 0.0000 -201128.2440 21797.5653 48.0618 0.0000 0.0000 -175612.7371 0.0000 -175612.7371 -175612.7371 0.0000 16320.6370 -4919.6877 534946.2959 16320.6370 -4919.6877
ENERGY: 860 162.4904 666.7868 2831.2106 0.0000 -201425.8338 21911.2599 47.8360 0.0000 0.0000 -175806.2501 0.0000 -175806.2501 -175806.2501 0.0000 16405.7676 -4879.1344 534946.2959 16405.7676 -4879.1344
ENERGY: 880 192.2792 692.8656 2843.8104 0.0000 -202374.1181 22322.2694 50.7827 0.0000 0.0000 -176272.1108 0.0000 -176272.1108 -176272.1108 0.0000 16628.6777 -4765.9994 534946.2959 16628.6777 -4765.9994
ENERGY: 900 157.9411 659.2647 2827.8309 0.0000 -202469.6571 22341.7999 51.9155 0.0000 0.0000 -176430.9050 0.0000 -176430.9050 -176430.9050 0.0000 16646.3272 -4765.8033 534946.2959 16646.3272 -4765.8033
TCL: Setting parameter constraintScaling to 0.01953125
TCL: Minimizing for 100 steps
ETITLE: TS BOND ANGLE DIHED IMPRP ELECT VDW BOUNDARY MISC KINETIC TOTAL TEMP POTENTIAL TOTAL3 TEMPAVG PRESSURE GPRESSURE VOLUME PRESSAVG GPRESSAVG
ENERGY: 900 157.9411 659.2647 2827.8309 0.0000 -202469.6571 22341.7999 25.9577 0.0000 0.0000 -176456.8627 0.0000 -176456.8627 -176456.8627 0.0000 16669.2171 -27214.1589 534946.2959 16669.2171 -27214.1589
ENERGY: 920 241.4066 685.2649 2826.3692 0.0000 -202658.5851 22404.9709 27.0631 0.0000 0.0000 -176473.5105 0.0000 -176473.5105 -176473.5105 0.0000 16648.0830 -4779.6456 534946.2959 16648.0830 -4779.6456
ENERGY: 940 174.0874 659.8001 2821.5826 0.0000 -202934.9813 22528.9178 28.2992 0.0000 0.0000 -176722.2942 0.0000 -176722.2942 -176722.2942 0.0000 16704.5599 -4742.6335 534946.2959 16704.5599 -4742.6335
ENERGY: 960 173.3792 667.0486 2821.5328 0.0000 -203232.0002 22641.7086 29.0012 0.0000 0.0000 -176899.3298 0.0000 -176899.3298 -176899.3298 0.0000 16776.4428 -4716.4067 534946.2959 16776.4428 -4716.4067
ENERGY: 980 165.2313 653.9542 2821.4294 0.0000 -203534.9777 22770.5167 28.9507 0.0000 0.0000 -177094.8955 0.0000 -177094.8955 -177094.8955 0.0000 16874.2087 -4656.9904 534946.2959 16874.2087 -4656.9904
ENERGY: 1000 166.3021 656.5913 2816.7717 0.0000 -204243.4512 23082.2437 31.0619 0.0000 0.0000 -177490.4806 0.0000 -177490.4806 -177490.4806 0.0000 17009.5740 -4599.9162 534946.2959 17009.5740 -4599.9162
TCL: Setting parameter constraintScaling to 0
TCL: Minimizing for 5000 steps
ETITLE: TS BOND ANGLE DIHED IMPRP ELECT VDW BOUNDARY MISC KINETIC TOTAL TEMP POTENTIAL TOTAL3 TEMPAVG PRESSURE GPRESSURE VOLUME PRESSAVG GPRESSAVG
ENERGY: 1000 166.3021 656.5913 2816.7717 0.0000 -204243.4512 23082.2437 0.0000 0.0000 0.0000 -177521.5425 0.0000 -177521.5425 -177521.5425 0.0000 17035.2290 -27272.1036 534946.2959 17035.2290 -27272.1036
ENERGY: 2000 168.2470 664.2273 2801.1434 0.0000 -214597.1827 27633.1299 0.0000 0.0000 0.0000 -183330.4352 0.0000 -183330.4352 -183330.4352 0.0000 19445.4067 -3331.8801 534946.2959 19445.4067 -3331.8801
ENERGY: 3000 168.7110 669.7816 2795.5466 0.0000 -217351.3227 28828.8366 0.0000 0.0000 0.0000 -184888.4470 0.0000 -184888.4470 -184888.4470 0.0000 20072.0764 -3003.8169 534946.2959 20072.0764 -3003.8169
ENERGY: 4000 166.8453 666.2100 2786.0187 0.0000 -218628.5574 29318.3335 0.0000 0.0000 0.0000 -185691.1499 0.0000 -185691.1499 -185691.1499 0.0000 20330.5455 -2870.0289 534946.2959 20330.5455 -2870.0289
ENERGY: 5000 165.2853 663.8615 2778.6890 0.0000 -219393.5060 29657.8309 0.0000 0.0000 0.0000 -186127.8393 0.0000 -186127.8393 -186127.8393 0.0000 20511.9651 -2771.5554 534946.2959 20511.9651 -2771.5554
ENERGY: 6000 165.6111 663.1433 2774.1695 0.0000 -219831.0676 29834.2858 0.0000 0.0000 0.0000 -186393.8578 0.0000 -186393.8578 -186393.8578 0.0000 20601.8604 -2728.3896 534946.2959 20601.8604 -2728.3896
