Info: SIMULATION PARAMETERS:
Info: TIMESTEP               1
Info: NUMBER OF STEPS        0
Info: STEPS PER CYCLE        10
Info: PERIODIC CELL BASIS 1  72.449 0 0
Info: PERIODIC CELL BASIS 2  0 93.247 0
Info: PERIODIC CELL BASIS 3  0 0 79.185
Info: PERIODIC CELL CENTER   -0.248 -0.156 -0.047
Info: WRAPPING WATERS AROUND PERIODIC BOUNDARIES ON OUTPUT.
Info: WRAPPING ALL CLUSTERS AROUND PERIODIC BOUNDARIES ON OUTPUT.
Info: FIRST LDB TIMESTEP     50
Info: LAST LDB TIMESTEP     -1
Info: HOM BACKGROUND SCALING 1
Info: PME BACKGROUND SCALING 1
Info: MIN ATOMS PER PATCH    40
Info: VELOCITY FILE          ../replicas/rep54/equilibration/eq1.vel
Info: CENTER OF MASS MOVING INITIALLY? NO
Info: DIELECTRIC             1
Info: EXCLUDE                SCALED ONE-FOUR
Info: 1-4 ELECTROSTATICS SCALED BY 0.833333
Info: MODIFIED 1-4 VDW PARAMETERS WILL BE USED
Info: DCD FILENAME           ../replicas/rep54/equilibration/eq2.dcd
Info: DCD FREQUENCY          5000
Info: DCD FIRST STEP         5000
Info: DCD FILE WILL CONTAIN UNIT CELL DATA
Info: XST FILENAME           ../replicas/rep54/equilibration/eq2.xst
Info: XST FREQUENCY          5000
Info: NO VELOCITY DCD OUTPUT
Info: NO FORCE DCD OUTPUT
Info: OUTPUT FILENAME        ../replicas/rep54/equilibration/eq2
Info: RESTART FILENAME       ../replicas/rep54/equilibration/eq2.restart
Info: RESTART FREQUENCY      5000
Info: BINARY RESTART FILES WILL BE USED
Info: SWITCHING ACTIVE
Info: SWITCHING ON           10
Info: SWITCHING OFF          12
Info: PAIRLIST DISTANCE      13.5
Info: PAIRLIST SHRINK RATE   0.01
Info: PAIRLIST GROW RATE     0.01
Info: PAIRLIST TRIGGER       0.3
Info: PAIRLISTS PER CYCLE    2
Info: PAIRLISTS ENABLED
Info: MARGIN                 0.48
Info: HYDROGEN GROUP CUTOFF  2.5
Info: PATCH DIMENSION        16.48
Info: ENERGY OUTPUT STEPS    500
Info: CROSSTERM ENERGY INCLUDED IN DIHEDRAL
Info: TIMING OUTPUT STEPS    5000
Info: PRESSURE OUTPUT STEPS  500
Info: HARMONIC CONSTRAINTS ACTIVE
Info: HARMONIC CONS EXP      2
Info: HARMONIC CONS SCALING  10
Info: LANGEVIN DYNAMICS ACTIVE
Info: LANGEVIN TEMPERATURE   300
Info: LANGEVIN USING BBK INTEGRATOR
Info: LANGEVIN DAMPING COEFFICIENT IS 5 INVERSE PS
Info: LANGEVIN DYNAMICS NOT APPLIED TO HYDROGENS
Info: BERENDSEN PRESSURE COUPLING ACTIVE
Info:     TARGET PRESSURE IS 1 BAR
Info:     COMPRESSIBILITY ESTIMATE IS 4.57e-05 BAR^(-1)
Info:     RELAXATION TIME IS 100 FS
Info:     APPLIED EVERY 2 STEPS
Info:     PRESSURE CONTROL IS GROUP-BASED
Info:       CELL FLUCTUATION IS ISOTROPIC
Info: PARTICLE MESH EWALD (PME) ACTIVE
Info: PME TOLERANCE               1e-06
Info: PME EWALD COEFFICIENT       0.257952
Info: PME INTERPOLATION ORDER     4
Info: PME GRID DIMENSIONS         80 96 80
Info: PME MAXIMUM GRID SPACING    1
Info: FULL ELECTROSTATIC EVALUATION FREQUENCY      2
Info: USING VERLET I (r-RESPA) MTS SCHEME.
Info: C1 SPLITTING OF LONG RANGE ELECTROSTATICS
Info: PLACING ATOMS IN PATCHES BY HYDROGEN GROUPS
Info: RIGID BONDS TO HYDROGEN : WATER
Info:         ERROR TOLERANCE : 1e-05
Info:          MAX ITERATIONS : 100
Info: RIGID WATER USING SETTLE ALGORITHM
Info: RANDOM NUMBER SEED     1503708181
Info: USE HYDROGEN BONDS?    NO
Info: Using AMBER format force field!
Info: AMBER PARM FILE        ../build/complex.top
Info: COORDINATE PDB         ../replicas/rep54/equilibration/eq1.coor
Info: Exclusions in PARM file will be ignored!
Info: SCNB (VDW SCALING)     2
Info: USING ARITHMETIC MEAN TO COMBINE L-J SIGMA PARAMETERS
Info: SUMMARY OF PARAMETERS:
Info: 71 BONDS
Info: 145 ANGLES
Info:   145 HARMONIC
Info:   0 COSINE-BASED
Info: 76 DIHEDRAL
Info: 0 IMPROPER
Info: 0 CROSSTERM
Info: 0 VDW
Info: 190 VDW_PAIRS
Info: 0 NBTHOLE_PAIRS
Info: STRUCTURE SUMMARY:
Info: 49394 ATOMS
Info: 49448 BONDS
Info: 8698 ANGLES
Info: 18780 DIHEDRALS
Info: 0 IMPROPERS
Info: 0 CROSSTERMS
Info: 0 EXCLUSIONS
Info: 2336 CONSTRAINTS
Info: 44667 RIGID BONDS
Info: 103515 DEGREES OF FREEDOM
Info: 17225 HYDROGEN GROUPS
Info: 4 ATOMS IN LARGEST HYDROGEN GROUP
Info: 17225 MIGRATION GROUPS
Info: 4 ATOMS IN LARGEST MIGRATION GROUP
Info: TOTAL MASS = 301478 amu
Info: TOTAL CHARGE = 1.00115e-05 e
Info: MASS DENSITY = 0.935846 g/cm^3
Info: ATOM DENSITY = 0.0923345 atoms/A^3
Info: ADDED 70656 IMPLICIT EXCLUSIONS
Info: NONBONDED TABLE R-SQUARED SPACING: 0.0625
Info: NONBONDED TABLE SIZE: 769 POINTS
Info: REMOVING COM VELOCITY 0.0226811 0.00835776 0.024739
TCL: Running for 5000 steps
ETITLE: TS BOND ANGLE DIHED IMPRP ELECT VDW BOUNDARY MISC KINETIC TOTAL TEMP POTENTIAL TOTAL3 TEMPAVG PRESSURE GPRESSURE VOLUME PRESSAVG GPRESSAVG
ENERGY: 0 377.9832 1245.5661 2913.1016 0.0000 -213040.0978 29725.5170 0.0000 0.0000 10027.0973 -168750.8327 97.4905 -178777.9300 -168741.2084 97.4905 -2331.9256 -2435.1292 534946.2959 -2331.9256 -2435.1292
ENERGY: 1000 1263.2384 1967.3848 3113.2143 0.0000 -193609.6956 26489.2147 779.9112 0.0000 24045.1228 -135951.6094 233.7836 -159996.7322 -135933.1913 219.0194 -41.2554 -10.1062 522113.7183 -11.6331 -11.8012
ENERGY: 2000 1487.4517 2138.9541 3165.2328 0.0000 -184279.2785 23424.3409 764.1836 0.0000 27840.9485 -125458.1668 270.6893 -153299.1154 -125421.5137 263.8310 -138.1823 -24.5891 514055.9985 -31.1819 -31.5825
ENERGY: 3000 1501.1854 2197.8274 3114.2699 0.0000 -179368.1101 21651.7944 794.8828 0.0000 29423.2528 -120684.8975 286.0736 -150108.1502 -120635.1769 283.5779 -23.8774 -18.1061 509652.2528 -24.0510 -24.3699
ENERGY: 4000 1576.5355 2216.9120 3160.2487 0.0000 -177569.7119 21011.5499 796.4981 0.0000 30146.9763 -118660.9914 293.1101 -148807.9677 -118602.7995 291.5707 -20.4387 12.3083 506955.6962 -14.4978 -14.2847
ENERGY: 5000 1568.4279 2272.0116 3125.5800 0.0000 -176394.4720 20650.5986 839.2418 0.0000 30660.2112 -117278.4008 298.1002 -147938.6120 -117227.9207 296.7860 -38.9632 10.9402 506482.3595 -4.4196 -4.3535
TCL: Setting parameter constraintScaling to 5.0
TCL: Running for 5000 steps
ETITLE: TS BOND ANGLE DIHED IMPRP ELECT VDW BOUNDARY MISC KINETIC TOTAL TEMP POTENTIAL TOTAL3 TEMPAVG PRESSURE GPRESSURE VOLUME PRESSAVG GPRESSAVG
ENERGY: 5000 1568.4279 2272.0116 3125.5800 0.0000 -176394.4720 20650.5986 419.6209 0.0000 30658.1436 -117700.0893 298.0801 -148358.2329 -117651.5359 298.0801 -61.9503 -20.2884 506482.3595 -61.9503 -20.2884
ENERGY: 6000 1590.5447 2283.7718 3151.4506 0.0000 -176024.3406 20492.2323 629.2796 0.0000 30814.5975 -117062.4641 299.6012 -147877.0616 -117012.1511 297.5545 -58.6124 -26.0583 505441.0171 -0.8084 -1.1154
ENERGY: 7000 1559.3647 2314.4874 3156.7441 0.0000 -175710.3425 20120.8525 649.0537 0.0000 30961.3523 -116948.4878 301.0281 -147909.8401 -116901.0486 299.1243 7.8376 25.3210 504444.6118 9.9860 10.0256
ENERGY: 8000 1583.7003 2287.7305 3172.0337 0.0000 -175560.6832 20160.6248 634.2591 0.0000 30799.6331 -116922.7018 299.4557 -147722.3349 -116883.3835 299.3100 -30.3543 54.7019 501959.5446 -4.5076 -4.3555
ENERGY: 9000 1603.2044 2297.3524 3151.2398 0.0000 -175321.1135 20050.2979 652.7546 0.0000 30710.0517 -116856.2127 298.5848 -147566.2644 -116820.1188 299.9937 -7.2709 7.0048 501725.8591 0.8344 0.9591
ENERGY: 10000 1594.1974 2380.2590 3167.2560 0.0000 -175153.5950 19856.8277 656.3258 0.0000 30796.3528 -116702.3763 299.4238 -147498.7291 -116654.3524 300.3062 -179.5996 -66.6832 502574.6036 4.5943 4.6254
TCL: Setting parameter constraintScaling to 2.5
TCL: Running for 5000 steps
ETITLE: TS BOND ANGLE DIHED IMPRP ELECT VDW BOUNDARY MISC KINETIC TOTAL TEMP POTENTIAL TOTAL3 TEMPAVG PRESSURE GPRESSURE VOLUME PRESSAVG GPRESSAVG
ENERGY: 10000 1594.1974 2380.2590 3167.2560 0.0000 -175153.5950 19856.8277 328.1629 0.0000 30794.3082 -117032.5838 299.4040 -147826.8920 -116987.4336 299.4040 -257.6281 -147.0740 502574.6036 -257.6281 -147.0740
ENERGY: 11000 1611.8766 2419.8623 3213.6436 0.0000 -175487.8232 19912.8830 494.0577 0.0000 31115.1098 -116720.3902 302.5230 -147835.5001 -116669.7401 301.0310 3.3686 -10.2233 501434.7590 2.7708 3.4022
ENERGY: 12000 1662.5132 2310.4697 3183.6489 0.0000 -175873.2604 20283.3759 504.1336 0.0000 30765.3454 -117163.7738 299.1224 -147929.1191 -117120.5226 299.4354 -187.8154 -49.0347 500006.2717 -13.2091 -12.8262
ENERGY: 13000 1612.6287 2307.3065 3130.0194 0.0000 -175899.3357 20196.8568 506.4972 0.0000 30787.6411 -117358.3860 299.3391 -148146.0271 -117306.2850 299.1105 36.1202 33.6977 501738.6425 9.4364 9.1374
ENERGY: 14000 1654.1750 2328.6484 3186.6558 0.0000 -176000.6501 20078.8115 536.9730 0.0000 30838.8577 -117376.5286 299.8371 -148215.3863 -117340.6637 299.2832 -71.2981 -18.0365 500598.4974 -1.8458 -2.0717
ENERGY: 15000 1589.9672 2392.1785 3173.9992 0.0000 -175637.5078 20023.0556 522.3524 0.0000 30722.5567 -117213.3983 298.7063 -147935.9549 -117166.1087 298.4083 102.3186 44.7149 501271.3949 10.2747 10.3673
TCL: Setting parameter constraintScaling to 1.25
TCL: Running for 5000 steps
ETITLE: TS BOND ANGLE DIHED IMPRP ELECT VDW BOUNDARY MISC KINETIC TOTAL TEMP POTENTIAL TOTAL3 TEMPAVG PRESSURE GPRESSURE VOLUME PRESSAVG GPRESSAVG
ENERGY: 15000 1589.9672 2392.1785 3173.9992 0.0000 -175637.5079 20023.0556 261.1762 0.0000 30720.5277 -117476.6035 298.6866 -148197.1311 -117431.1428 298.6866 -25.1400 -78.3190 501271.3949 -25.1400 -78.3190
ENERGY: 16000 1662.2004 2377.5134 3182.2072 0.0000 -176111.2180 20266.3432 420.1766 0.0000 30765.5598 -117437.2173 299.1245 -148202.7771 -117394.2137 298.6172 -138.1389 -40.3336 499612.3302 10.8073 11.0816
ENERGY: 17000 1627.2111 2370.9763 3188.2082 0.0000 -176301.4922 20323.1286 420.9505 0.0000 30537.2039 -117833.8137 296.9042 -148371.0175 -117790.7052 298.2347 13.4251 18.1806 498853.8463 -4.5479 -4.4568
ENERGY: 18000 1636.5971 2367.9595 3166.0139 0.0000 -175664.0907 20016.3081 376.5685 0.0000 30790.4005 -117310.2433 299.3660 -148100.6437 -117268.9744 299.1429 -83.2853 -29.1981 497968.5860 -11.8158 -12.1175
ENERGY: 19000 1657.0988 2414.0355 3201.7177 0.0000 -175497.6198 19955.7524 402.7059 0.0000 30891.3883 -116974.9212 300.3478 -147866.3095 -116925.6570 300.4861 28.1336 69.0340 498519.6158 3.0789 2.6756
ENERGY: 20000 1636.1013 2362.5584 3202.4823 0.0000 -175948.1828 20263.0975 413.2323 0.0000 30901.9296 -117168.7813 300.4503 -148070.7110 -117117.9560 300.2713 -97.2433 -10.7582 499388.9332 -10.3776 -11.1502
TCL: Setting parameter constraintScaling to 0.625
TCL: Running for 5000 steps
ETITLE: TS BOND ANGLE DIHED IMPRP ELECT VDW BOUNDARY MISC KINETIC TOTAL TEMP POTENTIAL TOTAL3 TEMPAVG PRESSURE GPRESSURE VOLUME PRESSAVG GPRESSAVG
ENERGY: 20000 1636.1013 2362.5584 3202.4823 0.0000 -175948.1828 20263.0975 206.6162 0.0000 30899.8737 -117377.4534 300.4303 -148277.3271 -117335.4713 300.4303 -110.3490 -30.9371 499388.9332 -110.3490 -30.9371
ENERGY: 21000 1578.9832 2365.1549 3207.5823 0.0000 -175252.0223 19786.8757 296.5469 0.0000 30844.6932 -117172.1861 299.8938 -148016.8793 -117126.9793 299.5634 -203.9131 -89.0758 498290.4274 -6.2653 -6.1819
ENERGY: 22000 1676.9824 2379.1948 3190.7301 0.0000 -175641.7622 20005.3463 295.0233 0.0000 30758.9117 -117335.5735 299.0598 -148094.4853 -117289.5974 299.5951 -108.6385 -54.1301 498630.3764 1.8162 1.9173
ENERGY: 23000 1621.5667 2410.4956 3225.1493 0.0000 -175777.9444 20005.1920 316.8585 0.0000 30968.9541 -117229.7282 301.1020 -148198.6824 -117180.6118 300.0308 87.8579 23.6994 496954.7262 -0.0808 -0.4248
ENERGY: 24000 1607.4735 2382.0390 3230.8035 0.0000 -175370.1964 19997.7851 307.3766 0.0000 30732.3513 -117112.3675 298.8016 -147844.7188 -117068.7674 300.6647 79.7263 -7.8268 497272.3832 4.8838 4.6654
ENERGY: 25000 1672.0684 2365.3795 3186.7112 0.0000 -175316.3257 19908.8855 324.4944 0.0000 30915.4274 -116943.3594 300.5816 -147858.7868 -116893.0676 300.3709 -97.8098 -8.9602 498719.9689 1.8195 1.3923
TCL: Setting parameter constraintScaling to 0.3125
TCL: Running for 5000 steps
ETITLE: TS BOND ANGLE DIHED IMPRP ELECT VDW BOUNDARY MISC KINETIC TOTAL TEMP POTENTIAL TOTAL3 TEMPAVG PRESSURE GPRESSURE VOLUME PRESSAVG GPRESSAVG
ENERGY: 25000 1672.0684 2365.3795 3186.7112 0.0000 -175316.3257 19908.8855 162.2472 0.0000 30913.3973 -117107.6367 300.5618 -148021.0340 -117061.2685 300.5618 -114.0161 -21.9839 498719.9689 -114.0161 -21.9839
ENERGY: 26000 1608.9148 2377.5766 3228.1290 0.0000 -175389.0089 19872.7610 233.5778 0.0000 30934.3354 -117133.7144 300.7654 -148068.0498 -117092.6580 301.7517 3.6773 3.5774 497979.4051 -1.7759 -1.5400
ENERGY: 27000 1599.5633 2434.7607 3206.3994 0.0000 -175921.1624 20123.9496 261.2698 0.0000 30813.9108 -117481.3087 299.5946 -148295.2196 -117434.2630 300.4284 170.4378 93.7184 498643.7466 15.8900 16.1781
ENERGY: 28000 1648.0679 2450.5250 3219.2407 0.0000 -175855.2739 20205.5931 238.7645 0.0000 30719.0790 -117374.0037 298.6725 -148093.0828 -117330.0613 298.7931 75.0558 33.2061 499498.2991 13.1514 13.2292
ENERGY: 29000 1624.9373 2433.0688 3186.7727 0.0000 -176435.1313 20423.1305 250.4053 0.0000 31032.5678 -117484.2487 301.7205 -148516.8165 -117442.0913 299.6148 -70.6152 -70.7968 498057.3342 -7.0559 -7.3885
ENERGY: 30000 1644.9257 2415.4890 3216.6073 0.0000 -175631.1714 20166.9296 248.9592 0.0000 30778.0814 -117160.1793 299.2462 -147938.2607 -117113.4764 300.2898 -41.7839 89.7960 498139.9531 7.3545 6.9312
TCL: Setting parameter constraintScaling to 0.15625
TCL: Running for 5000 steps
ETITLE: TS BOND ANGLE DIHED IMPRP ELECT VDW BOUNDARY MISC KINETIC TOTAL TEMP POTENTIAL TOTAL3 TEMPAVG PRESSURE GPRESSURE VOLUME PRESSAVG GPRESSAVG
ENERGY: 30000 1644.9257 2415.4890 3216.6073 0.0000 -175631.1715 20166.9296 124.4796 0.0000 30775.9965 -117286.7438 299.2259 -148062.7403 -117244.2880 299.2259 -57.4913 71.8138 498139.9531 -57.4913 71.8138
ENERGY: 31000 1602.3817 2401.3932 3233.2952 0.0000 -175559.2418 19964.5396 184.4695 0.0000 30904.5706 -117268.5919 300.4760 -148173.1625 -117233.9564 300.1960 -36.7367 50.4684 497986.5036 -8.8074 -8.8556
ENERGY: 32000 1628.9289 2389.2592 3235.2154 0.0000 -176143.1020 20182.3882 183.7556 0.0000 30792.1024 -117731.4523 299.3825 -148523.5547 -117693.6233 299.0960 -57.9786 -23.3058 496894.3233 -5.7983 -5.9678
ENERGY: 33000 1635.1787 2347.2464 3229.9811 0.0000 -175653.1831 20151.7071 196.2447 0.0000 30558.5256 -117534.2994 297.1115 -148092.8251 -117500.1953 298.8853 -26.7286 -8.8944 498098.6454 -3.0184 -3.4778
ENERGY: 34000 1595.2263 2461.8477 3247.4565 0.0000 -175996.1096 20067.4603 192.5168 0.0000 30900.2345 -117531.3675 300.4339 -148431.6020 -117482.3579 299.1197 -47.7373 32.6197 497548.9905 -0.6167 -0.1809
ENERGY: 35000 1605.3585 2419.7709 3204.9054 0.0000 -175480.8865 19767.5415 204.1560 0.0000 30839.2254 -117439.9289 299.8407 -148279.1543 -117403.4089 299.8002 -78.1199 -100.3132 496235.2561 -12.0657 -11.5896
TCL: Setting parameter constraintScaling to 0.078125
TCL: Running for 5000 steps
ETITLE: TS BOND ANGLE DIHED IMPRP ELECT VDW BOUNDARY MISC KINETIC TOTAL TEMP POTENTIAL TOTAL3 TEMPAVG PRESSURE GPRESSURE VOLUME PRESSAVG GPRESSAVG
ENERGY: 35000 1605.3585 2419.7709 3204.9054 0.0000 -175480.8865 19767.5415 102.0780 0.0000 30837.1560 -117544.0764 299.8206 -148381.2323 -117500.6962 299.8206 -90.7870 -112.0033 496235.2561 -90.7870 -112.0033
ENERGY: 36000 1634.9178 2388.9038 3214.4267 0.0000 -175798.3000 20008.2423 165.2656 0.0000 30869.7510 -117516.7927 300.1375 -148386.5438 -117467.5312 300.0087 66.8769 56.5254 495573.2135 -3.5762 -3.5642
ENERGY: 37000 1648.7232 2357.1385 3218.6423 0.0000 -175293.8932 19866.8597 158.8411 0.0000 31039.0363 -117004.6522 301.7834 -148043.6885 -116970.4197 300.1513 5.1652 63.0971 496842.0773 1.3801 1.5533
ENERGY: 38000 1645.0844 2422.4142 3177.3478 0.0000 -175792.4102 19993.8455 159.7352 0.0000 30862.3404 -117531.6428 300.0654 -148393.9832 -117500.3776 300.6502 -1.5485 8.9414 496937.6380 -0.1075 -0.0742
ENERGY: 39000 1576.5929 2392.1630 3214.2621 0.0000 -175653.1482 19923.4422 152.9045 0.0000 30910.3249 -117483.4586 300.5320 -148393.7835 -117427.7263 299.8056 -4.5379 28.8590 496129.8092 -11.7725 -11.3696
ENERGY: 40000 1609.9470 2439.0205 3208.8845 0.0000 -175800.5891 20120.7682 150.8930 0.0000 30640.7014 -117630.3746 297.9105 -148271.0759 -117590.7483 299.1634 131.6638 115.8974 496635.5351 0.4069 -0.1059
TCL: Setting parameter constraintScaling to 0.0390625
TCL: Running for 5000 steps
ETITLE: TS BOND ANGLE DIHED IMPRP ELECT VDW BOUNDARY MISC KINETIC TOTAL TEMP POTENTIAL TOTAL3 TEMPAVG PRESSURE GPRESSURE VOLUME PRESSAVG GPRESSAVG
ENERGY: 40000 1609.9470 2439.0205 3208.8845 0.0000 -175800.5891 20120.7682 75.4465 0.0000 30638.6304 -117707.8920 297.8904 -148346.5224 -117668.3707 297.8904 128.0390 108.4209 496635.5351 128.0390 108.4209
ENERGY: 41000 1581.4058 2459.7406 3216.0430 0.0000 -175948.6614 19958.5116 107.3524 0.0000 30857.5786 -117768.0294 300.0191 -148625.6080 -117711.0755 298.9220 78.3185 55.1135 496538.1510 2.5790 3.2324
ENERGY: 42000 1595.3129 2384.7703 3219.1628 0.0000 -176103.0166 20244.4229 122.9720 0.0000 30771.9154 -117764.4603 299.1862 -148536.3758 -117711.9530 299.7635 -34.0304 50.0085 497451.1425 9.3308 9.7355
ENERGY: 43000 1637.3411 2417.5209 3220.3693 0.0000 -176173.9169 20293.7148 121.7487 0.0000 30718.2028 -117765.0192 298.6640 -148483.2221 -117722.8802 298.8066 6.4363 24.6414 497129.0134 -0.4906 -0.5410
ENERGY: 44000 1658.5644 2409.3836 3195.0344 0.0000 -176364.1341 20216.2092 127.8218 0.0000 30775.2431 -117981.8776 299.2186 -148757.1208 -117938.2229 299.0574 56.5861 19.4076 497704.5236 12.7882 12.6125
ENERGY: 45000 1607.9354 2405.0808 3225.8125 0.0000 -175919.7450 20044.0690 132.0631 0.0000 30894.3148 -117610.4694 300.3763 -148504.7842 -117556.3925 300.4149 -69.7505 -33.3813 497835.3246 1.9089 2.2688
TCL: Setting parameter constraintScaling to 0.01953125
TCL: Running for 5000 steps
ETITLE: TS BOND ANGLE DIHED IMPRP ELECT VDW BOUNDARY MISC KINETIC TOTAL TEMP POTENTIAL TOTAL3 TEMPAVG PRESSURE GPRESSURE VOLUME PRESSAVG GPRESSAVG
ENERGY: 45000 1607.9354 2405.0808 3225.8125 0.0000 -175919.7450 20044.0690 66.0315 0.0000 30892.2978 -117678.5179 300.3567 -148570.8158 -117634.6592 300.3567 -81.5894 -43.9961 497835.3246 -81.5894 -43.9961
ENERGY: 46000 1657.3028 2379.3091 3195.9627 0.0000 -176139.3133 20260.8256 82.0734 0.0000 30925.7737 -117638.0658 300.6822 -148563.8396 -117600.1084 300.0002 -43.1986 7.8391 497327.4923 8.9316 9.4168
ENERGY: 47000 1661.8642 2402.7616 3237.2420 0.0000 -175912.9147 20039.0396 83.1413 0.0000 31043.5112 -117445.3547 301.8269 -148488.8658 -117397.8246 300.4820 -146.7343 -17.4107 497652.2732 -1.6232 -1.7241
ENERGY: 48000 1660.9176 2418.3868 3177.4301 0.0000 -176167.6215 20140.9478 84.6077 0.0000 30808.7230 -117876.6085 299.5441 -148685.3315 -117844.3580 300.2521 0.7000 22.5301 496896.1874 4.4326 3.6687
ENERGY: 49000 1676.5648 2412.8104 3193.4053 0.0000 -175856.7650 20160.9027 89.1225 0.0000 30695.8564 -117628.1028 298.4467 -148323.9592 -117584.9946 300.0465 -78.5653 -118.2447 497939.4022 -10.5776 -10.6660
ENERGY: 50000 1666.9689 2319.9781 3185.6479 0.0000 -175930.5525 20109.6986 90.4488 0.0000 31007.7685 -117550.0417 301.4794 -148557.8102 -117512.8644 300.3042 -44.2532 -56.6574 497731.8254 -4.2377 -4.0808
TCL: Setting parameter constraintScaling to 0
TCL: Running for 5000 steps
ETITLE: TS BOND ANGLE DIHED IMPRP ELECT VDW BOUNDARY MISC KINETIC TOTAL TEMP POTENTIAL TOTAL3 TEMPAVG PRESSURE GPRESSURE VOLUME PRESSAVG GPRESSAVG
ENERGY: 50000 1666.9689 2319.9781 3185.6479 0.0000 -175930.5525 20109.6986 0.0000 0.0000 31005.7366 -117642.5224 301.4596 -148648.2590 -117597.3350 301.4596 -51.3767 -59.7773 497731.8254 -51.3767 -59.7773
ENERGY: 51000 1634.2512 2408.0594 3201.3985 0.0000 -176192.0329 20170.4007 0.0000 0.0000 31074.5993 -117703.3238 302.1292 -148777.9231 -117666.3983 300.7810 -97.5689 3.3254 496094.4367 -16.1721 -15.9699
ENERGY: 52000 1610.0448 2437.1052 3181.7483 0.0000 -175944.7962 19969.8941 0.0000 0.0000 31067.1297 -117678.8741 302.0565 -148746.0038 -117633.6067 299.5657 21.4882 63.8793 495669.8693 -2.1659 -2.2579
ENERGY: 53000 1620.9917 2453.7831 3185.1685 0.0000 -176151.6093 20198.7966 0.0000 0.0000 30958.2344 -117734.6351 300.9978 -148692.8694 -117691.0815 300.0640 -81.4796 -68.3683 496745.8527 2.7323 2.1368
ENERGY: 54000 1663.3842 2423.3803 3244.1855 0.0000 -176315.7034 20143.9303 0.0000 0.0000 30895.3058 -117945.5172 300.3859 -148840.8230 -117893.7488 300.1042 32.7092 33.4475 495665.1357 -6.5426 -5.9954
ENERGY: 55000 1592.8859 2402.0102 3258.5793 0.0000 -175700.7193 19846.0104 0.0000 0.0000 30780.9164 -117820.3172 299.2738 -148601.2336 -117770.9697 299.8618 -52.2611 -41.1637 496750.5643 11.0718 10.8685
