Info: SIMULATION PARAMETERS:
Info: TIMESTEP               2
Info: NUMBER OF STEPS        0
Info: STEPS PER CYCLE        10
Info: PERIODIC CELL BASIS 1  72.449 0 0
Info: PERIODIC CELL BASIS 2  0 93.247 0
Info: PERIODIC CELL BASIS 3  0 0 79.185
Info: PERIODIC CELL CENTER   -0.248 -0.156 -0.047
Info: WRAPPING WATERS AROUND PERIODIC BOUNDARIES ON OUTPUT.
Info: WRAPPING ALL CLUSTERS AROUND PERIODIC BOUNDARIES ON OUTPUT.
Info: FIRST LDB TIMESTEP     50
Info: LAST LDB TIMESTEP     -1
Info: HOM BACKGROUND SCALING 1
Info: PME BACKGROUND SCALING 1
Info: MIN ATOMS PER PATCH    40
Info: INITIAL TEMPERATURE    0
Info: CENTER OF MASS MOVING INITIALLY? NO
Info: DIELECTRIC             1
Info: EXCLUDE                SCALED ONE-FOUR
Info: 1-4 ELECTROSTATICS SCALED BY 0.833333
Info: MODIFIED 1-4 VDW PARAMETERS WILL BE USED
Info: NO DCD TRAJECTORY OUTPUT
Info: NO EXTENDED SYSTEM TRAJECTORY OUTPUT
Info: NO VELOCITY DCD OUTPUT
Info: NO FORCE DCD OUTPUT
Info: OUTPUT FILENAME        ../replicas/rep32/equilibration/eq0
Info: NO RESTART FILE
Info: SWITCHING ACTIVE
Info: SWITCHING ON           10
Info: SWITCHING OFF          12
Info: PAIRLIST DISTANCE      13.5
Info: PAIRLIST SHRINK RATE   0.01
Info: PAIRLIST GROW RATE     0.01
Info: PAIRLIST TRIGGER       0.3
Info: PAIRLISTS PER CYCLE    2
Info: PAIRLISTS ENABLED
Info: MARGIN                 0
Info: HYDROGEN GROUP CUTOFF  2.5
Info: PATCH DIMENSION        16
Info: ENERGY OUTPUT STEPS    500
Info: CROSSTERM ENERGY INCLUDED IN DIHEDRAL
Info: TIMING OUTPUT STEPS    5000
Info: PRESSURE OUTPUT STEPS  500
Info: HARMONIC CONSTRAINTS ACTIVE
Info: HARMONIC CONS EXP      2
Info: HARMONIC CONS SCALING  10
Info: CONJUGATE GRADIENT MINIMIZATION ACTIVE
Info: LINE MINIMIZATION GOAL = 0.001
Info: BABY STEP SIZE = 0.01
Info: TINY STEP SIZE = 1e-06
Info: PARTICLE MESH EWALD (PME) ACTIVE
Info: PME TOLERANCE               1e-06
Info: PME EWALD COEFFICIENT       0.257952
Info: PME INTERPOLATION ORDER     4
Info: PME GRID DIMENSIONS         80 96 80
Info: PME MAXIMUM GRID SPACING    1
Info: FULL ELECTROSTATIC EVALUATION FREQUENCY      2
Info: USING VERLET I (r-RESPA) MTS SCHEME.
Info: C1 SPLITTING OF LONG RANGE ELECTROSTATICS
Info: PLACING ATOMS IN PATCHES BY HYDROGEN GROUPS
Info: RIGID BONDS TO HYDROGEN : ALL
Info:         ERROR TOLERANCE : 1e-05
Info:          MAX ITERATIONS : 100
Info: RIGID WATER USING SETTLE ALGORITHM
Info: RANDOM NUMBER SEED     1503695256
Info: USE HYDROGEN BONDS?    NO
Info: Using AMBER format force field!
Info: AMBER PARM FILE        ../build/complex.top
Info: COORDINATE PDB         ../build/complex.pdb
Info: Exclusions in PARM file will be ignored!
Info: SCNB (VDW SCALING)     2
Info: USING ARITHMETIC MEAN TO COMBINE L-J SIGMA PARAMETERS
Info: SUMMARY OF PARAMETERS:
Info: 71 BONDS
Info: 145 ANGLES
Info: 76 DIHEDRAL
Info: 0 IMPROPER
Info: 0 CROSSTERM
Info: 0 VDW
Info: 190 VDW_PAIRS
Info: 0 NBTHOLE_PAIRS
Info: STRUCTURE SUMMARY:
Info: 49394 ATOMS
Info: 49448 BONDS
Info: 8698 ANGLES
Info: 18780 DIHEDRALS
Info: 0 IMPROPERS
Info: 0 CROSSTERMS
Info: 0 EXCLUSIONS
Info: 2336 CONSTRAINTS
Info: 47058 RIGID BONDS
Info: 101124 DEGREES OF FREEDOM
Info: 17225 HYDROGEN GROUPS
Info: 4 ATOMS IN LARGEST HYDROGEN GROUP
Info: 17225 MIGRATION GROUPS
Info: 4 ATOMS IN LARGEST MIGRATION GROUP
Info: TOTAL MASS = 301478 amu
Info: TOTAL CHARGE = 1.00115e-05 e
Info: MASS DENSITY = 0.935846 g/cm^3
Info: ATOM DENSITY = 0.0923345 atoms/A^3
Info: ADDED 70656 IMPLICIT EXCLUSIONS
Info: NONBONDED TABLE R-SQUARED SPACING: 0.0625
Info: NONBONDED TABLE SIZE: 769 POINTS
Info: REMOVING COM VELOCITY 0 0 0
TCL: Minimizing for 100 steps
ETITLE: TS BOND ANGLE DIHED IMPRP ELECT VDW BOUNDARY MISC KINETIC TOTAL TEMP POTENTIAL TOTAL3 TEMPAVG PRESSURE GPRESSURE VOLUME PRESSAVG GPRESSAVG
ENERGY: 0 155.4176 1012.2698 2855.7272 0.0000 -154496.7911 207729.2052 0.0468 0.0000 0.0000 57255.8755 0.0000 57255.8755 57255.8755 0.0000 116350.2532 86546.1670 534946.2959 116350.2532 86546.1670
ENERGY: 20 304.7530 935.7909 2893.4663 0.0000 -158672.9389 17936.6602 143.9453 0.0000 0.0000 -136458.3232 0.0000 -136458.3232 -136458.3232 0.0000 16523.9396 -239.4548 534946.2959 16523.9396 -239.4548
ENERGY: 40 198.7414 799.5723 2896.9273 0.0000 -162811.4548 16417.9532 221.3029 0.0000 0.0000 -142276.9577 0.0000 -142276.9577 -142276.9577 0.0000 15011.2699 -2135.4703 534946.2959 15011.2699 -2135.4703
ENERGY: 60 130.5285 715.3440 2898.2165 0.0000 -167496.1559 15446.7541 315.2796 0.0000 0.0000 -147990.0331 0.0000 -147990.0331 -147990.0331 0.0000 13793.8840 -3799.3983 534946.2959 13793.8840 -3799.3983
ENERGY: 80 431.2768 765.6315 2904.3782 0.0000 -169937.5222 15121.1532 372.0120 0.0000 0.0000 -150343.0705 0.0000 -150343.0705 -150343.0705 0.0000 13270.3327 -4577.2432 534946.2959 13270.3327 -4577.2432
ENERGY: 100 129.7164 708.0660 2904.2779 0.0000 -171050.0693 15018.6528 384.1999 0.0000 0.0000 -151905.1563 0.0000 -151905.1563 -151905.1563 0.0000 13092.9122 -4843.6333 534946.2959 13092.9122 -4843.6333
TCL: Setting parameter constraintScaling to 5.0
TCL: Minimizing for 100 steps
ETITLE: TS BOND ANGLE DIHED IMPRP ELECT VDW BOUNDARY MISC KINETIC TOTAL TEMP POTENTIAL TOTAL3 TEMPAVG PRESSURE GPRESSURE VOLUME PRESSAVG GPRESSAVG
ENERGY: 100 129.7164 708.0660 2904.2779 0.0000 -171050.0693 15018.6528 192.0999 0.0000 0.0000 -152097.2562 0.0000 -152097.2562 -152097.2562 0.0000 13703.5074 -22944.4558 534946.2959 13703.5074 -22944.4558
ENERGY: 120 118.6820 680.2879 2909.9065 0.0000 -172396.3211 14830.1202 259.9551 0.0000 0.0000 -153597.3694 0.0000 -153597.3694 -153597.3694 0.0000 13320.9463 -4756.3090 534946.2959 13320.9463 -4756.3090
ENERGY: 140 109.1501 671.1473 2912.0863 0.0000 -174830.2742 14716.1439 337.7308 0.0000 0.0000 -156084.0158 0.0000 -156084.0158 -156084.0158 0.0000 12908.9566 -5423.1503 534946.2959 12908.9566 -5423.1503
ENERGY: 160 125.8559 667.1481 2914.1928 0.0000 -175966.9672 14735.1310 362.9169 0.0000 0.0000 -157161.7225 0.0000 -157161.7225 -157161.7225 0.0000 12806.9048 -5644.5167 534946.2959 12806.9048 -5644.5167
ENERGY: 180 303.5454 659.6720 2917.2960 0.0000 -177408.5203 14814.9999 395.3787 0.0000 0.0000 -158317.6283 0.0000 -158317.6283 -158317.6283 0.0000 12699.3233 -5901.5546 534946.2959 12699.3233 -5901.5546
ENERGY: 200 109.2154 628.4954 2923.3620 0.0000 -179544.7614 15071.3095 441.9084 0.0000 0.0000 -160370.4707 0.0000 -160370.4707 -160370.4707 0.0000 12659.9861 -6162.5615 534946.2959 12659.9861 -6162.5615
TCL: Setting parameter constraintScaling to 2.5
TCL: Minimizing for 100 steps
ETITLE: TS BOND ANGLE DIHED IMPRP ELECT VDW BOUNDARY MISC KINETIC TOTAL TEMP POTENTIAL TOTAL3 TEMPAVG PRESSURE GPRESSURE VOLUME PRESSAVG GPRESSAVG
ENERGY: 200 109.2154 628.4954 2923.3620 0.0000 -179544.7614 15071.3095 220.9542 0.0000 0.0000 -160591.4249 0.0000 -160591.4249 -160591.4249 0.0000 13208.4285 -25281.7886 534946.2959 13208.4285 -25281.7886
ENERGY: 220 278.8179 653.8981 2925.3486 0.0000 -180409.8135 15110.0492 289.1178 0.0000 0.0000 -161152.5820 0.0000 -161152.5820 -161152.5820 0.0000 12996.9752 -5926.6272 534946.2959 12996.9752 -5926.6272
ENERGY: 240 251.9629 639.1606 2923.2819 0.0000 -181407.4717 15262.5968 324.5343 0.0000 0.0000 -162005.9353 0.0000 -162005.9353 -162005.9353 0.0000 12954.9074 -6066.8056 534946.2959 12954.9074 -6066.8056
ENERGY: 260 306.2638 658.1369 2922.9477 0.0000 -183642.7311 15761.4366 411.2344 0.0000 0.0000 -163582.7118 0.0000 -163582.7118 -163582.7118 0.0000 12991.1132 -6283.4955 534946.2959 12991.1132 -6283.4955
ENERGY: 280 147.7321 671.0168 2920.5189 0.0000 -184552.5073 16023.1690 429.3423 0.0000 0.0000 -164360.7283 0.0000 -164360.7283 -164360.7283 0.0000 13098.3723 -6288.0078 534946.2959 13098.3723 -6288.0078
ENERGY: 300 182.6951 671.6454 2923.0661 0.0000 -185702.8704 16378.9393 427.2450 0.0000 0.0000 -165119.2795 0.0000 -165119.2795 -165119.2795 0.0000 13250.9646 -6245.9309 534946.2959 13250.9646 -6245.9309
TCL: Setting parameter constraintScaling to 1.25
TCL: Minimizing for 100 steps
ETITLE: TS BOND ANGLE DIHED IMPRP ELECT VDW BOUNDARY MISC KINETIC TOTAL TEMP POTENTIAL TOTAL3 TEMPAVG PRESSURE GPRESSURE VOLUME PRESSAVG GPRESSAVG
ENERGY: 300 182.6951 671.6454 2923.0661 0.0000 -185702.8704 16378.9393 213.6225 0.0000 0.0000 -165332.9020 0.0000 -165332.9020 -165332.9020 0.0000 13666.0200 -26246.5844 534946.2959 13666.0200 -26246.5844
ENERGY: 320 175.4023 671.9692 2915.1475 0.0000 -186234.7388 16487.5093 252.6005 0.0000 0.0000 -165732.1101 0.0000 -165732.1101 -165732.1101 0.0000 13637.0369 -5929.2297 534946.2959 13637.0369 -5929.2297
ENERGY: 340 168.0809 650.5371 2911.1963 0.0000 -187043.2260 16699.9176 301.9863 0.0000 0.0000 -166311.5078 0.0000 -166311.5078 -166311.5078 0.0000 13614.2550 -6034.0993 534946.2959 13614.2550 -6034.0993
ENERGY: 360 198.2940 697.2061 2914.3078 0.0000 -188792.1467 17267.3388 394.4681 0.0000 0.0000 -167320.5318 0.0000 -167320.5318 -167320.5318 0.0000 13714.6709 -6124.2224 534946.2959 13714.6709 -6124.2224
ENERGY: 380 209.3871 661.5974 2901.1417 0.0000 -190647.3756 18016.3383 458.5947 0.0000 0.0000 -168400.3165 0.0000 -168400.3165 -168400.3165 0.0000 13990.0450 -6051.0647 534946.2959 13990.0450 -6051.0647
ENERGY: 400 160.7188 658.9434 2896.6291 0.0000 -191354.2768 18320.2361 458.1408 0.0000 0.0000 -168859.6087 0.0000 -168859.6087 -168859.6087 0.0000 14215.4162 -5944.2169 534946.2959 14215.4162 -5944.2169
TCL: Setting parameter constraintScaling to 0.625
TCL: Minimizing for 100 steps
ETITLE: TS BOND ANGLE DIHED IMPRP ELECT VDW BOUNDARY MISC KINETIC TOTAL TEMP POTENTIAL TOTAL3 TEMPAVG PRESSURE GPRESSURE VOLUME PRESSAVG GPRESSAVG
ENERGY: 400 160.7188 658.9434 2896.6291 0.0000 -191354.2768 18320.2361 229.0704 0.0000 0.0000 -169088.6791 0.0000 -169088.6791 -169088.6791 0.0000 14541.4506 -26710.1436 534946.2959 14541.4506 -26710.1436
ENERGY: 420 147.7070 641.7340 2890.4153 0.0000 -191760.1541 18411.4852 247.1709 0.0000 0.0000 -169421.6418 0.0000 -169421.6418 -169421.6418 0.0000 14525.7527 -5669.3847 534946.2959 14525.7527 -5669.3847
ENERGY: 440 304.6506 700.6234 2890.0878 0.0000 -192785.1653 18733.3367 271.8171 0.0000 0.0000 -169884.6498 0.0000 -169884.6498 -169884.6498 0.0000 14670.2754 -5654.2334 534946.2959 14670.2754 -5654.2334
ENERGY: 460 150.2209 642.3623 2879.7249 0.0000 -194073.4284 19213.3710 304.6901 0.0000 0.0000 -170883.0593 0.0000 -170883.0593 -170883.0593 0.0000 14883.3896 -5576.4461 534946.2959 14883.3896 -5576.4461
ENERGY: 480 283.9819 694.8953 2876.5768 0.0000 -194631.5986 19437.1577 316.5337 0.0000 0.0000 -171022.4532 0.0000 -171022.4532 -171022.4532 0.0000 14946.4219 -5598.3380 534946.2959 14946.4219 -5598.3380
ENERGY: 500 155.8519 634.1106 2877.6324 0.0000 -194923.9009 19542.2839 318.1994 0.0000 0.0000 -171395.8226 0.0000 -171395.8226 -171395.8226 0.0000 14989.1505 -5546.7228 534946.2959 14989.1505 -5546.7228
TCL: Setting parameter constraintScaling to 0.3125
TCL: Minimizing for 100 steps
ETITLE: TS BOND ANGLE DIHED IMPRP ELECT VDW BOUNDARY MISC KINETIC TOTAL TEMP POTENTIAL TOTAL3 TEMPAVG PRESSURE GPRESSURE VOLUME PRESSAVG GPRESSAVG
ENERGY: 500 155.8519 634.1106 2877.6324 0.0000 -194923.9009 19542.2839 159.0997 0.0000 0.0000 -171554.9223 0.0000 -171554.9223 -171554.9223 0.0000 15187.6477 -26901.0429 534946.2959 15187.6477 -26901.0429
ENERGY: 520 176.8016 650.1376 2873.4100 0.0000 -195255.0656 19652.2211 171.8733 0.0000 0.0000 -171730.6219 0.0000 -171730.6219 -171730.6219 0.0000 15195.1773 -5375.3185 534946.2959 15195.1773 -5375.3185
ENERGY: 540 185.0835 660.6652 2874.1480 0.0000 -195442.6237 19716.1547 176.4184 0.0000 0.0000 -171830.1538 0.0000 -171830.1538 -171830.1538 0.0000 15259.7699 -5341.3106 534946.2959 15259.7699 -5341.3106
ENERGY: 560 158.7949 644.6318 2871.5845 0.0000 -195997.6030 19912.4906 190.3789 0.0000 0.0000 -172219.7223 0.0000 -172219.7223 -172219.7223 0.0000 15305.3635 -5349.7995 534946.2959 15305.3635 -5349.7995
ENERGY: 580 154.3655 640.9135 2868.3205 0.0000 -196604.8964 20135.7199 204.8848 0.0000 0.0000 -172600.6922 0.0000 -172600.6922 -172600.6922 0.0000 15383.9696 -5338.3946 534946.2959 15383.9696 -5338.3946
ENERGY: 600 209.4211 650.5252 2866.7182 0.0000 -197638.9778 20539.5699 220.2450 0.0000 0.0000 -173152.4985 0.0000 -173152.4985 -173152.4985 0.0000 15571.0114 -5259.2274 534946.2959 15571.0114 -5259.2274
TCL: Setting parameter constraintScaling to 0.15625
TCL: Minimizing for 100 steps
ETITLE: TS BOND ANGLE DIHED IMPRP ELECT VDW BOUNDARY MISC KINETIC TOTAL TEMP POTENTIAL TOTAL3 TEMPAVG PRESSURE GPRESSURE VOLUME PRESSAVG GPRESSAVG
ENERGY: 600 209.4211 650.5252 2866.7182 0.0000 -197638.9778 20539.5699 110.1225 0.0000 0.0000 -173262.6209 0.0000 -173262.6209 -173262.6209 0.0000 15691.9385 -27042.4966 534946.2959 15691.9385 -27042.4966
ENERGY: 620 175.5770 660.4902 2859.2338 0.0000 -198041.9921 20669.5855 120.4935 0.0000 0.0000 -173556.6121 0.0000 -173556.6121 -173556.6121 0.0000 15728.3419 -5163.6986 534946.2959 15728.3419 -5163.6986
ENERGY: 640 157.0430 656.8371 2858.9938 0.0000 -198780.7862 20949.1994 129.8639 0.0000 0.0000 -174028.8489 0.0000 -174028.8489 -174028.8489 0.0000 15866.1986 -5109.3443 534946.2959 15866.1986 -5109.3443
ENERGY: 660 444.4375 872.8025 2867.2194 0.0000 -199442.2306 21200.3213 143.4474 0.0000 0.0000 -173914.0026 0.0000 -173914.0026 -173914.0026 0.0000 15893.8128 -5168.9514 534946.2959 15893.8128 -5168.9514
ENERGY: 680 161.5906 649.6088 2848.3519 0.0000 -200001.3383 21398.7329 146.1345 0.0000 0.0000 -174796.9196 0.0000 -174796.9196 -174796.9196 0.0000 16073.5817 -5045.3893 534946.2959 16073.5817 -5045.3893
ENERGY: 700 191.3200 666.7172 2840.2485 0.0000 -201186.5291 21905.8162 163.7856 0.0000 0.0000 -175418.6416 0.0000 -175418.6416 -175418.6416 0.0000 16316.4558 -4944.0923 534946.2959 16316.4558 -4944.0923
TCL: Setting parameter constraintScaling to 0.078125
TCL: Minimizing for 100 steps
ETITLE: TS BOND ANGLE DIHED IMPRP ELECT VDW BOUNDARY MISC KINETIC TOTAL TEMP POTENTIAL TOTAL3 TEMPAVG PRESSURE GPRESSURE VOLUME PRESSAVG GPRESSAVG
ENERGY: 700 191.3200 666.7172 2840.2485 0.0000 -201186.5291 21905.8162 81.8928 0.0000 0.0000 -175500.5344 0.0000 -175500.5344 -175500.5344 0.0000 16392.7819 -27190.3945 534946.2959 16392.7819 -27190.3945
ENERGY: 720 191.5081 704.1811 2839.4533 0.0000 -201589.0778 22061.5884 88.3539 0.0000 0.0000 -175703.9929 0.0000 -175703.9929 -175703.9929 0.0000 16410.4976 -4882.2393 534946.2959 16410.4976 -4882.2393
ENERGY: 740 157.9698 646.1852 2834.3620 0.0000 -201596.6766 22039.9894 86.8905 0.0000 0.0000 -175831.2797 0.0000 -175831.2797 -175831.2797 0.0000 16442.0589 -4862.0783 534946.2959 16442.0589 -4862.0783
ENERGY: 760 263.3048 680.9984 2834.4045 0.0000 -202169.8346 22253.1082 92.2235 0.0000 0.0000 -176045.7953 0.0000 -176045.7953 -176045.7953 0.0000 16518.2469 -4855.6171 534946.2959 16518.2469 -4855.6171
ENERGY: 780 160.9195 657.4431 2825.1406 0.0000 -202879.3963 22535.4929 99.6558 0.0000 0.0000 -176600.7444 0.0000 -176600.7444 -176600.7444 0.0000 16697.2310 -4771.5243 534946.2959 16697.2310 -4771.5243
ENERGY: 800 176.8927 663.2418 2826.5175 0.0000 -203460.5475 22800.7015 102.9494 0.0000 0.0000 -176890.2446 0.0000 -176890.2446 -176890.2446 0.0000 16867.9263 -4675.7991 534946.2959 16867.9263 -4675.7991
TCL: Setting parameter constraintScaling to 0.0390625
TCL: Minimizing for 100 steps
ETITLE: TS BOND ANGLE DIHED IMPRP ELECT VDW BOUNDARY MISC KINETIC TOTAL TEMP POTENTIAL TOTAL3 TEMPAVG PRESSURE GPRESSURE VOLUME PRESSAVG GPRESSAVG
ENERGY: 800 176.8927 663.2418 2826.5175 0.0000 -203460.5475 22800.7015 51.4747 0.0000 0.0000 -176941.7193 0.0000 -176941.7193 -176941.7193 0.0000 16912.1256 -27207.9276 534946.2959 16912.1256 -27207.9276
ENERGY: 820 217.7920 679.4112 2828.4043 0.0000 -203820.9363 22926.9110 54.6640 0.0000 0.0000 -177113.7538 0.0000 -177113.7538 -177113.7538 0.0000 16888.8496 -4669.3810 534946.2959 16888.8496 -4669.3810
ENERGY: 840 178.4480 655.1328 2817.1562 0.0000 -204366.9158 23157.3295 57.1089 0.0000 0.0000 -177501.7404 0.0000 -177501.7404 -177501.7404 0.0000 17064.8134 -4573.5379 534946.2959 17064.8134 -4573.5379
ENERGY: 860 162.8273 656.5524 2815.7766 0.0000 -204672.6645 23289.8119 59.1749 0.0000 0.0000 -177688.5214 0.0000 -177688.5214 -177688.5214 0.0000 17113.5343 -4563.7290 534946.2959 17113.5343 -4563.7290
ENERGY: 880 174.5294 670.3480 2810.2405 0.0000 -205176.3675 23539.6466 61.9109 0.0000 0.0000 -177919.6922 0.0000 -177919.6922 -177919.6922 0.0000 17260.9421 -4481.8780 534946.2959 17260.9421 -4481.8780
ENERGY: 900 163.4192 654.4129 2813.6995 0.0000 -205314.7473 23575.1784 62.2133 0.0000 0.0000 -178045.8240 0.0000 -178045.8240 -178045.8240 0.0000 17258.9819 -4492.1114 534946.2959 17258.9819 -4492.1114
TCL: Setting parameter constraintScaling to 0.01953125
TCL: Minimizing for 100 steps
ETITLE: TS BOND ANGLE DIHED IMPRP ELECT VDW BOUNDARY MISC KINETIC TOTAL TEMP POTENTIAL TOTAL3 TEMPAVG PRESSURE GPRESSURE VOLUME PRESSAVG GPRESSAVG
ENERGY: 900 163.4192 654.4129 2813.6995 0.0000 -205314.7473 23575.1784 31.1067 0.0000 0.0000 -178076.9307 0.0000 -178076.9307 -178076.9307 0.0000 17283.9850 -27281.0017 534946.2959 17283.9850 -27281.0017
ENERGY: 920 174.8260 656.0367 2807.7351 0.0000 -205593.4986 23691.7701 32.3143 0.0000 0.0000 -178230.8165 0.0000 -178230.8165 -178230.8165 0.0000 17335.6773 -4444.6802 534946.2959 17335.6773 -4444.6802
ENERGY: 940 319.2526 688.6225 2807.9231 0.0000 -206007.0393 23877.4709 33.5464 0.0000 0.0000 -178280.2238 0.0000 -178280.2238 -178280.2238 0.0000 17391.5751 -4421.5629 534946.2959 17391.5751 -4421.5629
ENERGY: 960 163.3121 655.2408 2804.8706 0.0000 -206454.8866 24085.1518 35.4340 0.0000 0.0000 -178710.8773 0.0000 -178710.8773 -178710.8773 0.0000 17538.8299 -4340.4275 534946.2959 17538.8299 -4340.4275
ENERGY: 980 165.9449 658.6450 2807.8572 0.0000 -206630.5522 24154.1721 35.8805 0.0000 0.0000 -178808.0525 0.0000 -178808.0525 -178808.0525 0.0000 17584.5688 -4318.3094 534946.2959 17584.5688 -4318.3094
ENERGY: 1000 184.1587 675.3278 2806.4138 0.0000 -207204.8837 24415.4509 38.4138 0.0000 0.0000 -179085.1187 0.0000 -179085.1187 -179085.1187 0.0000 17704.3673 -4259.3833 534946.2959 17704.3673 -4259.3833
TCL: Setting parameter constraintScaling to 0
TCL: Minimizing for 5000 steps
ETITLE: TS BOND ANGLE DIHED IMPRP ELECT VDW BOUNDARY MISC KINETIC TOTAL TEMP POTENTIAL TOTAL3 TEMPAVG PRESSURE GPRESSURE VOLUME PRESSAVG GPRESSAVG
ENERGY: 1000 184.1587 675.3278 2806.4138 0.0000 -207204.8837 24415.4509 0.0000 0.0000 0.0000 -179123.5325 0.0000 -179123.5325 -179123.5325 0.0000 17732.7467 -27274.8409 534946.2959 17732.7467 -27274.8409
ENERGY: 2000 178.2679 666.5520 2802.9964 0.0000 -214992.1403 27842.1546 0.0000 0.0000 0.0000 -183502.1693 0.0000 -183502.1693 -183502.1693 0.0000 19541.6842 -3282.2389 534946.2959 19541.6842 -3282.2389
ENERGY: 3000 166.3258 664.5077 2796.7515 0.0000 -217462.6836 28893.8714 0.0000 0.0000 0.0000 -184941.2272 0.0000 -184941.2272 -184941.2272 0.0000 20125.1370 -2686.8639 534946.2959 20125.1370 -2686.8639
ENERGY: 4000 165.1415 663.9552 2787.6189 0.0000 -218815.0922 29418.9119 0.0000 0.0000 0.0000 -185779.4647 0.0000 -185779.4647 -185779.4647 0.0000 20402.6857 -2550.3621 534946.2959 20402.6857 -2550.3621
ENERGY: 5000 166.2753 666.3792 2787.2947 0.0000 -219490.8829 29688.8191 0.0000 0.0000 0.0000 -186182.1145 0.0000 -186182.1145 -186182.1145 0.0000 20533.0249 -2487.0535 534946.2959 20533.0249 -2487.0535
ENERGY: 6000 167.1316 666.5848 2789.9626 0.0000 -219815.1069 29804.4694 0.0000 0.0000 0.0000 -186386.9586 0.0000 -186386.9586 -186386.9586 0.0000 20588.4883 -2458.5817 534946.2959 20588.4883 -2458.5817
