Info: SIMULATION PARAMETERS:
Info: TIMESTEP               1
Info: NUMBER OF STEPS        0
Info: STEPS PER CYCLE        10
Info: PERIODIC CELL BASIS 1  72.449 0 0
Info: PERIODIC CELL BASIS 2  0 93.247 0
Info: PERIODIC CELL BASIS 3  0 0 79.185
Info: PERIODIC CELL CENTER   -0.248 -0.156 -0.047
Info: WRAPPING WATERS AROUND PERIODIC BOUNDARIES ON OUTPUT.
Info: WRAPPING ALL CLUSTERS AROUND PERIODIC BOUNDARIES ON OUTPUT.
Info: FIRST LDB TIMESTEP     50
Info: LAST LDB TIMESTEP     -1
Info: HOM BACKGROUND SCALING 1
Info: PME BACKGROUND SCALING 1
Info: MIN ATOMS PER PATCH    40
Info: VELOCITY FILE          ../replicas/rep8/equilibration/eq1.vel
Info: CENTER OF MASS MOVING INITIALLY? NO
Info: DIELECTRIC             1
Info: EXCLUDE                SCALED ONE-FOUR
Info: 1-4 ELECTROSTATICS SCALED BY 0.833333
Info: MODIFIED 1-4 VDW PARAMETERS WILL BE USED
Info: DCD FILENAME           ../replicas/rep8/equilibration/eq2.dcd
Info: DCD FREQUENCY          5000
Info: DCD FIRST STEP         5000
Info: DCD FILE WILL CONTAIN UNIT CELL DATA
Info: XST FILENAME           ../replicas/rep8/equilibration/eq2.xst
Info: XST FREQUENCY          5000
Info: NO VELOCITY DCD OUTPUT
Info: NO FORCE DCD OUTPUT
Info: OUTPUT FILENAME        ../replicas/rep8/equilibration/eq2
Info: RESTART FILENAME       ../replicas/rep8/equilibration/eq2.restart
Info: RESTART FREQUENCY      5000
Info: BINARY RESTART FILES WILL BE USED
Info: SWITCHING ACTIVE
Info: SWITCHING ON           10
Info: SWITCHING OFF          12
Info: PAIRLIST DISTANCE      13.5
Info: PAIRLIST SHRINK RATE   0.01
Info: PAIRLIST GROW RATE     0.01
Info: PAIRLIST TRIGGER       0.3
Info: PAIRLISTS PER CYCLE    2
Info: PAIRLISTS ENABLED
Info: MARGIN                 0.48
Info: HYDROGEN GROUP CUTOFF  2.5
Info: PATCH DIMENSION        16.48
Info: ENERGY OUTPUT STEPS    500
Info: CROSSTERM ENERGY INCLUDED IN DIHEDRAL
Info: TIMING OUTPUT STEPS    5000
Info: PRESSURE OUTPUT STEPS  500
Info: HARMONIC CONSTRAINTS ACTIVE
Info: HARMONIC CONS EXP      2
Info: HARMONIC CONS SCALING  10
Info: LANGEVIN DYNAMICS ACTIVE
Info: LANGEVIN TEMPERATURE   300
Info: LANGEVIN USING BBK INTEGRATOR
Info: LANGEVIN DAMPING COEFFICIENT IS 5 INVERSE PS
Info: LANGEVIN DYNAMICS NOT APPLIED TO HYDROGENS
Info: BERENDSEN PRESSURE COUPLING ACTIVE
Info:     TARGET PRESSURE IS 1 BAR
Info:     COMPRESSIBILITY ESTIMATE IS 4.57e-05 BAR^(-1)
Info:     RELAXATION TIME IS 100 FS
Info:     APPLIED EVERY 2 STEPS
Info:     PRESSURE CONTROL IS GROUP-BASED
Info:       CELL FLUCTUATION IS ISOTROPIC
Info: PARTICLE MESH EWALD (PME) ACTIVE
Info: PME TOLERANCE               1e-06
Info: PME EWALD COEFFICIENT       0.257952
Info: PME INTERPOLATION ORDER     4
Info: PME GRID DIMENSIONS         80 96 80
Info: PME MAXIMUM GRID SPACING    1
Info: FULL ELECTROSTATIC EVALUATION FREQUENCY      2
Info: USING VERLET I (r-RESPA) MTS SCHEME.
Info: C1 SPLITTING OF LONG RANGE ELECTROSTATICS
Info: PLACING ATOMS IN PATCHES BY HYDROGEN GROUPS
Info: RIGID BONDS TO HYDROGEN : WATER
Info:         ERROR TOLERANCE : 1e-05
Info:          MAX ITERATIONS : 100
Info: RIGID WATER USING SETTLE ALGORITHM
Info: RANDOM NUMBER SEED     1503719544
Info: USE HYDROGEN BONDS?    NO
Info: Using AMBER format force field!
Info: AMBER PARM FILE        ../build/complex.top
Info: COORDINATE PDB         ../replicas/rep8/equilibration/eq1.coor
Info: Exclusions in PARM file will be ignored!
Info: SCNB (VDW SCALING)     2
Info: USING ARITHMETIC MEAN TO COMBINE L-J SIGMA PARAMETERS
Info: SUMMARY OF PARAMETERS:
Info: 71 BONDS
Info: 145 ANGLES
Info: 76 DIHEDRAL
Info: 0 IMPROPER
Info: 0 CROSSTERM
Info: 0 VDW
Info: 190 VDW_PAIRS
Info: 0 NBTHOLE_PAIRS
Info: STRUCTURE SUMMARY:
Info: 49394 ATOMS
Info: 49448 BONDS
Info: 8698 ANGLES
Info: 18780 DIHEDRALS
Info: 0 IMPROPERS
Info: 0 CROSSTERMS
Info: 0 EXCLUSIONS
Info: 2336 CONSTRAINTS
Info: 44667 RIGID BONDS
Info: 103515 DEGREES OF FREEDOM
Info: 17225 HYDROGEN GROUPS
Info: 4 ATOMS IN LARGEST HYDROGEN GROUP
Info: 17225 MIGRATION GROUPS
Info: 4 ATOMS IN LARGEST MIGRATION GROUP
Info: TOTAL MASS = 301478 amu
Info: TOTAL CHARGE = 1.00115e-05 e
Info: MASS DENSITY = 0.935846 g/cm^3
Info: ATOM DENSITY = 0.0923345 atoms/A^3
Info: ADDED 70656 IMPLICIT EXCLUSIONS
Info: NONBONDED TABLE R-SQUARED SPACING: 0.0625
Info: NONBONDED TABLE SIZE: 769 POINTS
Info: REMOVING COM VELOCITY -0.00166757 0.000451604 0.0139022
TCL: Running for 5000 steps
ETITLE: TS BOND ANGLE DIHED IMPRP ELECT VDW BOUNDARY MISC KINETIC TOTAL TEMP POTENTIAL TOTAL3 TEMPAVG PRESSURE GPRESSURE VOLUME PRESSAVG GPRESSAVG
ENERGY: 0 384.2109 1238.8229 2897.5170 0.0000 -212414.7962 29258.3310 0.0000 0.0000 10051.0095 -168584.9048 97.7230 -178635.9143 -168575.2455 97.7230 -2446.9907 -2545.6493 534946.2959 -2446.9907 -2545.6493
ENERGY: 1000 1223.4488 1964.0985 3090.3031 0.0000 -193369.8316 26246.8718 758.5015 0.0000 24216.6899 -135869.9180 235.4517 -160086.6079 -135843.8123 217.5994 -78.6071 -34.7574 522730.6936 -17.5097 -18.2378
ENERGY: 2000 1473.2207 2129.6264 3123.7715 0.0000 -183978.6501 23383.5959 819.1932 0.0000 27973.2347 -125076.0078 271.9755 -153049.2425 -125038.9625 265.1237 -129.4682 -31.4443 516380.1330 -37.2152 -37.3547
ENERGY: 3000 1530.9513 2196.5258 3126.7044 0.0000 -179227.2046 21674.3967 796.9707 0.0000 29491.7105 -120409.9452 286.7392 -149901.6557 -120374.7885 284.5123 -53.0329 -13.1298 512025.4194 -14.4431 -14.6693
ENERGY: 4000 1547.2364 2251.7031 3117.0495 0.0000 -177171.3923 20809.7793 851.5814 0.0000 30255.7152 -118338.3274 294.1674 -148594.0426 -118301.3656 292.8021 -29.5214 7.7879 506975.9391 -14.4204 -14.9909
ENERGY: 5000 1514.7080 2291.0169 3145.1787 0.0000 -176420.3834 20516.5434 814.1929 0.0000 30780.5092 -117358.2342 299.2698 -148138.7434 -117323.8818 297.1859 18.6740 -12.7952 504097.3151 -6.4242 -6.5645
TCL: Setting parameter constraintScaling to 5.0
TCL: Running for 5000 steps
ETITLE: TS BOND ANGLE DIHED IMPRP ELECT VDW BOUNDARY MISC KINETIC TOTAL TEMP POTENTIAL TOTAL3 TEMPAVG PRESSURE GPRESSURE VOLUME PRESSAVG GPRESSAVG
ENERGY: 5000 1514.7080 2291.0169 3145.1787 0.0000 -176420.3834 20516.5434 407.0964 0.0000 30778.4407 -117767.3992 299.2497 -148545.8398 -117721.8224 299.2497 6.2524 -32.2985 504097.3151 6.2524 -32.2985
ENERGY: 6000 1557.5362 2309.5789 3148.8184 0.0000 -175681.5531 20270.7567 666.3879 0.0000 30602.0557 -117126.4193 297.5348 -147728.4750 -117090.4938 299.0152 -17.3055 -28.5591 502814.8357 -7.5111 -7.1038
ENERGY: 7000 1559.4477 2264.7464 3133.6450 0.0000 -175683.1526 20279.3425 635.0791 0.0000 30708.6463 -117102.2455 298.5711 -147810.8918 -117055.2246 299.0903 -33.4143 -21.8375 500849.6434 -20.1625 -20.3603
ENERGY: 8000 1595.6822 2359.4547 3176.1736 0.0000 -175560.2396 20313.5190 670.7954 0.0000 30631.3946 -116813.2203 297.8200 -147444.6148 -116766.2470 298.8869 -16.1746 16.6811 501492.4056 8.9830 9.2175
ENERGY: 9000 1616.4642 2281.2390 3160.2610 0.0000 -175556.5205 20003.0755 672.6483 0.0000 30950.7216 -116872.1108 300.9247 -147822.8324 -116825.2864 299.2497 -31.3691 -47.3541 501300.5689 7.7911 7.8863
ENERGY: 10000 1584.1748 2302.3989 3160.0757 0.0000 -175406.0916 19958.7102 661.9789 0.0000 31217.5369 -116521.2164 303.5189 -147738.7533 -116465.5676 300.8808 -115.2308 -55.0792 499381.4144 -7.6936 -7.5890
TCL: Setting parameter constraintScaling to 2.5
TCL: Running for 5000 steps
ETITLE: TS BOND ANGLE DIHED IMPRP ELECT VDW BOUNDARY MISC KINETIC TOTAL TEMP POTENTIAL TOTAL3 TEMPAVG PRESSURE GPRESSURE VOLUME PRESSAVG GPRESSAVG
ENERGY: 10000 1584.1748 2302.3989 3160.0757 0.0000 -175406.0916 19958.7102 330.9894 0.0000 31215.5049 -116854.2378 303.4991 -148069.7427 -116808.9513 303.4991 -135.9516 -70.2379 499381.4144 -135.9516 -70.2379
ENERGY: 11000 1599.3918 2344.6217 3140.8532 0.0000 -175473.1145 20132.6690 539.5670 0.0000 30758.8597 -116957.1521 299.0593 -147716.0118 -116909.3511 299.4885 -4.0624 60.0736 501384.4298 18.1837 18.7562
ENERGY: 12000 1613.3329 2368.1297 3183.0315 0.0000 -175285.1658 20178.6970 504.6799 0.0000 30986.3515 -116450.9433 301.2711 -147437.2948 -116403.8872 301.3921 -37.0660 -40.5827 500158.3903 4.6866 4.4539
ENERGY: 13000 1618.0395 2333.1513 3189.8765 0.0000 -175791.2832 20286.4032 524.1639 0.0000 30871.5815 -116968.0673 300.1553 -147839.6487 -116923.4995 299.8680 77.8227 33.2703 498650.1968 -16.8000 -16.5639
ENERGY: 14000 1571.8164 2324.3539 3171.1648 0.0000 -175558.6260 20046.3349 533.3861 0.0000 30917.1292 -116994.4407 300.5981 -147911.5699 -116943.4913 298.7463 -15.4266 21.5461 499559.3787 4.8183 4.8946
ENERGY: 15000 1547.5816 2364.0568 3168.7728 0.0000 -175828.6005 20216.8066 541.2214 0.0000 30802.4628 -117187.6986 299.4833 -147990.1613 -117131.1762 299.2581 16.3565 65.1038 499098.8784 5.8766 6.0566
TCL: Setting parameter constraintScaling to 1.25
TCL: Running for 5000 steps
ETITLE: TS BOND ANGLE DIHED IMPRP ELECT VDW BOUNDARY MISC KINETIC TOTAL TEMP POTENTIAL TOTAL3 TEMPAVG PRESSURE GPRESSURE VOLUME PRESSAVG GPRESSAVG
ENERGY: 15000 1547.5816 2364.0568 3168.7728 0.0000 -175828.6005 20216.8066 270.6107 0.0000 30800.4459 -117460.3262 299.4636 -148260.7720 -117416.4077 299.4636 11.6422 62.0492 499098.8784 11.6422 62.0492
ENERGY: 16000 1609.4123 2404.3345 3157.0529 0.0000 -176065.9729 20160.9598 398.7295 0.0000 30737.9381 -117597.5456 298.8559 -148335.4837 -117554.0539 298.3682 3.3814 57.3502 497497.0471 -9.8451 -9.3246
ENERGY: 17000 1611.0276 2380.3181 3221.8493 0.0000 -175816.5336 20286.1330 402.6077 0.0000 30815.4151 -117099.1827 299.6092 -147914.5978 -117053.6662 299.1859 -115.5808 -86.1750 499843.5769 2.7825 3.3811
ENERGY: 18000 1568.9463 2347.1965 3182.8416 0.0000 -175805.8777 20172.5214 401.3907 0.0000 30919.2839 -117213.6973 300.6191 -148132.9813 -117164.4116 299.6296 161.9345 17.1582 501041.2610 4.8192 4.5826
ENERGY: 19000 1614.4438 2287.0466 3162.8833 0.0000 -175628.4655 19943.7408 432.7336 0.0000 30815.1926 -117372.4247 299.6070 -148187.6173 -117326.1557 298.9768 -42.2432 50.8127 500006.6846 4.5630 4.7477
ENERGY: 20000 1680.2176 2352.7206 3167.7307 0.0000 -175818.7578 20021.2562 398.0142 0.0000 30799.3850 -117399.4334 299.4533 -148198.8184 -117355.0935 299.8832 -35.2247 -18.8973 498510.5231 2.4604 2.5773
TCL: Setting parameter constraintScaling to 0.625
TCL: Running for 5000 steps
ETITLE: TS BOND ANGLE DIHED IMPRP ELECT VDW BOUNDARY MISC KINETIC TOTAL TEMP POTENTIAL TOTAL3 TEMPAVG PRESSURE GPRESSURE VOLUME PRESSAVG GPRESSAVG
ENERGY: 20000 1680.2176 2352.7206 3167.7307 0.0000 -175818.7577 20021.2562 199.0071 0.0000 30797.3586 -117600.4669 299.4336 -148397.8255 -117556.7620 299.4336 -62.2805 -54.0692 498510.5231 -62.2805 -54.0692
ENERGY: 21000 1656.2190 2442.7559 3159.4087 0.0000 -175986.2989 20289.9304 315.9923 0.0000 30907.6506 -117214.3420 300.5060 -148121.9926 -117171.5883 299.7325 33.4612 93.0051 498399.6053 -4.6533 -4.9845
ENERGY: 22000 1607.2493 2411.4332 3171.9697 0.0000 -175537.8554 19842.8065 331.1179 0.0000 30911.0867 -117262.1921 300.5394 -148173.2788 -117212.1408 298.9805 -52.4727 34.7843 498618.8324 -0.5815 -0.0055
ENERGY: 23000 1669.5373 2416.3417 3214.5093 0.0000 -175607.0698 20031.3695 334.9715 0.0000 30744.8894 -117195.4510 298.9235 -147940.3404 -117144.4539 300.6788 -112.5139 -78.0533 499682.6151 -2.3784 -1.9645
ENERGY: 24000 1650.7290 2364.5998 3186.8387 0.0000 -175620.9321 20083.6701 321.9673 0.0000 30985.5590 -117027.5681 301.2634 -148013.1271 -116992.2119 300.5896 43.1464 8.4336 499438.7714 -0.4132 0.3097
ENERGY: 25000 1542.0300 2340.5191 3177.5014 0.0000 -175592.1040 20099.2570 314.4960 0.0000 30931.4201 -117186.8804 300.7371 -148118.3005 -117136.3977 299.7908 -86.6721 7.5328 498732.8217 -7.4057 -7.1620
TCL: Setting parameter constraintScaling to 0.3125
TCL: Running for 5000 steps
ETITLE: TS BOND ANGLE DIHED IMPRP ELECT VDW BOUNDARY MISC KINETIC TOTAL TEMP POTENTIAL TOTAL3 TEMPAVG PRESSURE GPRESSURE VOLUME PRESSAVG GPRESSAVG
ENERGY: 25000 1542.0300 2340.5191 3177.5014 0.0000 -175592.1040 20099.2570 157.2480 0.0000 30929.3587 -117346.1898 300.7170 -148275.5485 -117301.0200 300.7170 -82.5252 13.1072 498732.8217 -82.5252 13.1072
ENERGY: 26000 1588.5388 2405.6176 3169.6943 0.0000 -175872.1983 20127.0196 254.9845 0.0000 30916.2184 -117410.1250 300.5893 -148326.3434 -117362.7969 299.1256 0.4069 -0.6222 498846.4548 2.1354 2.4332
ENERGY: 27000 1611.1705 2364.5246 3200.3832 0.0000 -175135.1917 19916.7905 233.4243 0.0000 30784.2248 -117024.6738 299.3059 -147808.8987 -116997.9601 300.1766 32.2565 59.3397 500126.7894 14.6643 14.3961
ENERGY: 28000 1596.5568 2428.1659 3179.5794 0.0000 -175445.7589 19840.2765 260.9758 0.0000 30813.7801 -117326.4246 299.5933 -148140.2047 -117279.6865 300.1091 -28.0629 34.5963 498193.6332 -10.2972 -10.5001
ENERGY: 29000 1668.3757 2405.7385 3188.0619 0.0000 -175460.0789 19954.5603 262.2702 0.0000 31017.0171 -116964.0553 301.5693 -147981.0724 -116924.1482 300.1546 -26.2388 -84.2490 497834.5971 1.0918 1.1317
ENERGY: 30000 1640.4714 2458.8757 3200.1030 0.0000 -175858.3339 20216.1614 260.7644 0.0000 30974.5737 -117107.3842 301.1566 -148081.9579 -117061.7714 301.1484 -79.6099 -6.3811 498200.5074 1.0078 1.6253
TCL: Setting parameter constraintScaling to 0.15625
TCL: Running for 5000 steps
ETITLE: TS BOND ANGLE DIHED IMPRP ELECT VDW BOUNDARY MISC KINETIC TOTAL TEMP POTENTIAL TOTAL3 TEMPAVG PRESSURE GPRESSURE VOLUME PRESSAVG GPRESSAVG
ENERGY: 30000 1640.4714 2458.8757 3200.1030 0.0000 -175858.3339 20216.1614 130.3822 0.0000 30972.5212 -117239.8189 301.1367 -148212.3401 -117199.5215 301.1367 -99.3136 -17.5948 498200.5074 -99.3136 -17.5948
ENERGY: 31000 1694.0532 2437.5872 3205.7605 0.0000 -175805.2802 20078.8637 183.0853 0.0000 30814.9904 -117390.9400 299.6051 -148205.9304 -117350.1531 300.5245 -72.6506 16.4956 496386.5489 -6.3831 -5.9499
ENERGY: 32000 1618.4351 2386.4671 3190.1247 0.0000 -176218.3278 20156.4767 190.3005 0.0000 30788.0074 -117888.5164 299.3427 -148676.5238 -117850.0920 298.7475 -145.9505 -24.1322 495745.1672 1.8028 1.5805
ENERGY: 33000 1658.3919 2372.4564 3231.9321 0.0000 -176320.6433 20174.5238 208.8609 0.0000 30926.1500 -117748.3282 300.6858 -148674.4782 -117698.6029 298.9479 97.1316 43.0135 496138.4619 5.4175 5.6045
ENERGY: 34000 1681.7092 2328.7587 3221.0442 0.0000 -175991.6313 20243.5871 202.6414 0.0000 30956.5078 -117357.3830 300.9810 -148313.8907 -117308.3775 301.0077 5.0334 70.3305 496504.8257 -6.7017 -5.9907
ENERGY: 35000 1628.1089 2431.9153 3187.5601 0.0000 -176449.2070 20353.8377 199.5289 0.0000 30956.0570 -117692.1991 300.9766 -148648.2561 -117642.6479 299.2579 29.4412 42.7712 495974.4977 -1.7970 -2.2647
TCL: Setting parameter constraintScaling to 0.078125
TCL: Running for 5000 steps
ETITLE: TS BOND ANGLE DIHED IMPRP ELECT VDW BOUNDARY MISC KINETIC TOTAL TEMP POTENTIAL TOTAL3 TEMPAVG PRESSURE GPRESSURE VOLUME PRESSAVG GPRESSAVG
ENERGY: 35000 1628.1089 2431.9153 3187.5601 0.0000 -176449.2070 20353.8377 99.7644 0.0000 30953.9943 -117794.0262 300.9565 -148748.0205 -117751.3775 300.9565 46.4340 52.9498 495974.4977 46.4340 52.9498
ENERGY: 36000 1681.9961 2412.4084 3209.1369 0.0000 -176245.6018 20094.9192 141.7660 0.0000 30681.6289 -118023.7463 298.3084 -148705.3752 -117982.8345 299.6162 -109.8803 -19.2767 495497.8727 -5.2500 -5.2657
ENERGY: 37000 1652.6996 2421.3085 3224.8041 0.0000 -175627.7685 19830.0579 152.0321 0.0000 30672.4155 -117674.4508 298.2188 -148346.8664 -117629.0987 298.7876 -22.4982 -30.1841 495967.4915 3.2536 2.9237
ENERGY: 38000 1619.7654 2358.8459 3197.3772 0.0000 -175941.5807 20085.1048 161.7025 0.0000 30799.7789 -117719.0060 299.4572 -148518.7848 -117682.7268 299.3798 78.8906 103.4165 497569.2374 8.3040 7.9700
ENERGY: 39000 1633.5869 2385.7102 3227.4314 0.0000 -175518.7831 20000.9335 153.1047 0.0000 30771.8259 -117346.1904 299.1854 -148118.0163 -117310.3016 299.2655 -35.6464 -22.5559 498065.8813 8.2591 8.1213
ENERGY: 40000 1645.1716 2426.5945 3229.6665 0.0000 -175836.1114 19933.8547 162.3247 0.0000 31086.3304 -117352.1688 302.2432 -148438.4993 -117310.7468 300.8980 -59.2537 14.5541 497787.9167 5.3259 5.6803
TCL: Setting parameter constraintScaling to 0.0390625
TCL: Running for 5000 steps
ETITLE: TS BOND ANGLE DIHED IMPRP ELECT VDW BOUNDARY MISC KINETIC TOTAL TEMP POTENTIAL TOTAL3 TEMPAVG PRESSURE GPRESSURE VOLUME PRESSAVG GPRESSAVG
ENERGY: 40000 1645.1716 2426.5945 3229.6665 0.0000 -175836.1114 19933.8547 81.1624 0.0000 31084.2649 -117435.3967 302.2231 -148519.6616 -117390.6340 302.2231 -83.5002 -5.4901 497787.9167 -83.5002 -5.4901
ENERGY: 41000 1600.4314 2376.1978 3217.1235 0.0000 -176148.4218 20039.7937 114.4268 0.0000 30885.2968 -117915.1517 300.2886 -148800.4486 -117870.6719 299.9894 93.2568 103.3827 495619.5644 -17.6473 -17.4421
ENERGY: 42000 1543.1875 2357.9626 3180.2281 0.0000 -176141.2024 20166.3558 116.5735 0.0000 30639.0999 -118137.7949 297.8949 -148776.8948 -118085.9489 299.6075 13.5090 38.0397 495948.7399 4.5262 4.9112
ENERGY: 43000 1650.9332 2326.9642 3238.7442 0.0000 -176532.1141 20224.7533 115.7189 0.0000 30687.0125 -118287.9878 298.3608 -148975.0003 -118242.2077 298.2759 -52.3484 -82.5274 495872.0516 -3.2749 -3.1311
ENERGY: 44000 1629.7169 2375.0601 3227.7417 0.0000 -176187.9316 20028.9572 119.1640 0.0000 31111.9283 -117695.3634 302.4921 -148807.2917 -117639.7585 299.1825 78.5924 81.0050 495947.8611 -8.9261 -8.9771
ENERGY: 45000 1651.5511 2423.2017 3183.2061 0.0000 -175661.6825 19884.4286 128.6552 0.0000 30934.4271 -117456.2126 300.7663 -148390.6397 -117405.0930 300.8016 -38.4486 -6.0085 497147.8239 8.7564 8.2389
TCL: Setting parameter constraintScaling to 0.01953125
TCL: Running for 5000 steps
ETITLE: TS BOND ANGLE DIHED IMPRP ELECT VDW BOUNDARY MISC KINETIC TOTAL TEMP POTENTIAL TOTAL3 TEMPAVG PRESSURE GPRESSURE VOLUME PRESSAVG GPRESSAVG
ENERGY: 45000 1651.5511 2423.2017 3183.2061 0.0000 -175661.6825 19884.4286 64.3276 0.0000 30932.4116 -117522.5557 300.7467 -148454.9673 -117482.7212 300.7467 -43.4768 -4.5003 497147.8239 -43.4768 -4.5003
ENERGY: 46000 1595.9413 2377.4821 3182.0924 0.0000 -175586.1797 19960.6470 75.0747 0.0000 30716.0351 -117678.9070 298.6429 -148394.9420 -117632.5304 299.6995 195.0069 157.2734 497528.6681 3.0208 2.6640
ENERGY: 47000 1617.4898 2413.2831 3197.3006 0.0000 -176022.3587 19921.0778 85.0746 0.0000 30820.9308 -117967.2020 299.6628 -148788.1328 -117928.6691 299.4102 -123.1970 -7.1048 496550.3773 -3.4221 -3.0501
ENERGY: 48000 1601.6119 2428.8264 3205.0294 0.0000 -175881.4510 19934.1964 87.3855 0.0000 30798.0186 -117826.3828 299.4400 -148624.4014 -117775.5285 299.6797 -60.0825 10.6700 496334.4676 -1.1619 -0.6633
ENERGY: 49000 1665.8342 2388.0534 3184.1410 0.0000 -175993.7127 20205.3884 91.9791 0.0000 30658.6934 -117799.6232 298.0854 -148458.3167 -117760.8670 300.6468 -91.1434 -1.2916 498211.0549 4.2452 4.8870
ENERGY: 50000 1632.9031 2372.4155 3193.9356 0.0000 -176134.1502 19888.8971 88.6301 0.0000 30762.3762 -118194.9925 299.0935 -148957.3688 -118150.8467 299.0745 -83.5816 -52.8585 494768.9259 -10.1757 -10.3546
TCL: Setting parameter constraintScaling to 0
TCL: Running for 5000 steps
ETITLE: TS BOND ANGLE DIHED IMPRP ELECT VDW BOUNDARY MISC KINETIC TOTAL TEMP POTENTIAL TOTAL3 TEMPAVG PRESSURE GPRESSURE VOLUME PRESSAVG GPRESSAVG
ENERGY: 50000 1632.9031 2372.4155 3193.9356 0.0000 -176134.1502 19888.8971 0.0000 0.0000 30760.3232 -118285.6756 299.0735 -149045.9988 -118243.7390 299.0735 -90.2833 -59.3410 494768.9259 -90.2833 -59.3410
ENERGY: 51000 1610.0031 2393.1297 3202.4348 0.0000 -175949.1365 19982.1583 0.0000 0.0000 30843.9437 -117917.4670 299.8866 -148761.4107 -117866.1210 299.4328 47.1094 35.2683 497175.8248 5.1947 5.2961
ENERGY: 52000 1599.0092 2353.6454 3221.3642 0.0000 -175856.2960 20013.4102 0.0000 0.0000 30719.8480 -117949.0190 298.6800 -148668.8670 -117903.0925 299.5912 -59.5839 22.8733 496178.7827 4.7272 3.7186
ENERGY: 53000 1591.7866 2402.4650 3160.1866 0.0000 -176255.3970 20079.5955 0.0000 0.0000 30893.7703 -118127.5930 300.3710 -149021.3632 -118080.5169 298.6935 -11.4087 -47.9375 495616.5439 -5.5112 -5.0198
ENERGY: 54000 1583.8791 2370.9781 3181.2745 0.0000 -176104.1919 20166.8418 0.0000 0.0000 30715.3567 -118085.8616 298.6363 -148801.2183 -118033.1159 297.6218 6.7604 5.0448 497240.5797 13.2460 13.0064
ENERGY: 55000 1633.7172 2416.5594 3185.9537 0.0000 -175776.6625 19933.5031 0.0000 0.0000 30573.1269 -118033.8022 297.2535 -148606.9291 -117998.3030 299.3007 -20.9093 21.9907 496377.7446 3.4428 3.0039
