Info: SIMULATION PARAMETERS:
Info: TIMESTEP               1
Info: NUMBER OF STEPS        0
Info: STEPS PER CYCLE        10
Info: PERIODIC CELL BASIS 1  72.449 0 0
Info: PERIODIC CELL BASIS 2  0 93.247 0
Info: PERIODIC CELL BASIS 3  0 0 79.185
Info: PERIODIC CELL CENTER   -0.248 -0.156 -0.047
Info: WRAPPING WATERS AROUND PERIODIC BOUNDARIES ON OUTPUT.
Info: WRAPPING ALL CLUSTERS AROUND PERIODIC BOUNDARIES ON OUTPUT.
Info: FIRST LDB TIMESTEP     50
Info: LAST LDB TIMESTEP     -1
Info: HOM BACKGROUND SCALING 1
Info: PME BACKGROUND SCALING 1
Info: MIN ATOMS PER PATCH    40
Info: VELOCITY FILE          ../replicas/rep7/equilibration/eq1.vel
Info: CENTER OF MASS MOVING INITIALLY? NO
Info: DIELECTRIC             1
Info: EXCLUDE                SCALED ONE-FOUR
Info: 1-4 ELECTROSTATICS SCALED BY 0.833333
Info: MODIFIED 1-4 VDW PARAMETERS WILL BE USED
Info: DCD FILENAME           ../replicas/rep7/equilibration/eq2.dcd
Info: DCD FREQUENCY          5000
Info: DCD FIRST STEP         5000
Info: DCD FILE WILL CONTAIN UNIT CELL DATA
Info: XST FILENAME           ../replicas/rep7/equilibration/eq2.xst
Info: XST FREQUENCY          5000
Info: NO VELOCITY DCD OUTPUT
Info: NO FORCE DCD OUTPUT
Info: OUTPUT FILENAME        ../replicas/rep7/equilibration/eq2
Info: RESTART FILENAME       ../replicas/rep7/equilibration/eq2.restart
Info: RESTART FREQUENCY      5000
Info: BINARY RESTART FILES WILL BE USED
Info: SWITCHING ACTIVE
Info: SWITCHING ON           10
Info: SWITCHING OFF          12
Info: PAIRLIST DISTANCE      13.5
Info: PAIRLIST SHRINK RATE   0.01
Info: PAIRLIST GROW RATE     0.01
Info: PAIRLIST TRIGGER       0.3
Info: PAIRLISTS PER CYCLE    2
Info: PAIRLISTS ENABLED
Info: MARGIN                 0.48
Info: HYDROGEN GROUP CUTOFF  2.5
Info: PATCH DIMENSION        16.48
Info: ENERGY OUTPUT STEPS    500
Info: CROSSTERM ENERGY INCLUDED IN DIHEDRAL
Info: TIMING OUTPUT STEPS    5000
Info: PRESSURE OUTPUT STEPS  500
Info: HARMONIC CONSTRAINTS ACTIVE
Info: HARMONIC CONS EXP      2
Info: HARMONIC CONS SCALING  10
Info: LANGEVIN DYNAMICS ACTIVE
Info: LANGEVIN TEMPERATURE   300
Info: LANGEVIN USING BBK INTEGRATOR
Info: LANGEVIN DAMPING COEFFICIENT IS 5 INVERSE PS
Info: LANGEVIN DYNAMICS NOT APPLIED TO HYDROGENS
Info: BERENDSEN PRESSURE COUPLING ACTIVE
Info:     TARGET PRESSURE IS 1 BAR
Info:     COMPRESSIBILITY ESTIMATE IS 4.57e-05 BAR^(-1)
Info:     RELAXATION TIME IS 100 FS
Info:     APPLIED EVERY 2 STEPS
Info:     PRESSURE CONTROL IS GROUP-BASED
Info:       CELL FLUCTUATION IS ISOTROPIC
Info: PARTICLE MESH EWALD (PME) ACTIVE
Info: PME TOLERANCE               1e-06
Info: PME EWALD COEFFICIENT       0.257952
Info: PME INTERPOLATION ORDER     4
Info: PME GRID DIMENSIONS         80 96 80
Info: PME MAXIMUM GRID SPACING    1
Info: FULL ELECTROSTATIC EVALUATION FREQUENCY      2
Info: USING VERLET I (r-RESPA) MTS SCHEME.
Info: C1 SPLITTING OF LONG RANGE ELECTROSTATICS
Info: PLACING ATOMS IN PATCHES BY HYDROGEN GROUPS
Info: RIGID BONDS TO HYDROGEN : WATER
Info:         ERROR TOLERANCE : 1e-05
Info:          MAX ITERATIONS : 100
Info: RIGID WATER USING SETTLE ALGORITHM
Info: RANDOM NUMBER SEED     1503694887
Info: USE HYDROGEN BONDS?    NO
Info: Using AMBER format force field!
Info: AMBER PARM FILE        ../build/complex.top
Info: COORDINATE PDB         ../replicas/rep7/equilibration/eq1.coor
Info: Exclusions in PARM file will be ignored!
Info: SCNB (VDW SCALING)     2
Info: USING ARITHMETIC MEAN TO COMBINE L-J SIGMA PARAMETERS
Info: SUMMARY OF PARAMETERS:
Info: 71 BONDS
Info: 145 ANGLES
Info: 76 DIHEDRAL
Info: 0 IMPROPER
Info: 0 CROSSTERM
Info: 0 VDW
Info: 190 VDW_PAIRS
Info: 0 NBTHOLE_PAIRS
Info: STRUCTURE SUMMARY:
Info: 49394 ATOMS
Info: 49448 BONDS
Info: 8698 ANGLES
Info: 18780 DIHEDRALS
Info: 0 IMPROPERS
Info: 0 CROSSTERMS
Info: 0 EXCLUSIONS
Info: 2336 CONSTRAINTS
Info: 44667 RIGID BONDS
Info: 103515 DEGREES OF FREEDOM
Info: 17225 HYDROGEN GROUPS
Info: 4 ATOMS IN LARGEST HYDROGEN GROUP
Info: 17225 MIGRATION GROUPS
Info: 4 ATOMS IN LARGEST MIGRATION GROUP
Info: TOTAL MASS = 301478 amu
Info: TOTAL CHARGE = 1.00115e-05 e
Info: MASS DENSITY = 0.935846 g/cm^3
Info: ATOM DENSITY = 0.0923345 atoms/A^3
Info: ADDED 70656 IMPLICIT EXCLUSIONS
Info: NONBONDED TABLE R-SQUARED SPACING: 0.0625
Info: NONBONDED TABLE SIZE: 769 POINTS
Info: REMOVING COM VELOCITY -0.0113252 -0.0112476 -0.00872068
TCL: Running for 5000 steps
ETITLE: TS BOND ANGLE DIHED IMPRP ELECT VDW BOUNDARY MISC KINETIC TOTAL TEMP POTENTIAL TOTAL3 TEMPAVG PRESSURE GPRESSURE VOLUME PRESSAVG GPRESSAVG
ENERGY: 0 387.7883 1212.8327 2930.9320 0.0000 -212841.2867 29640.1810 0.0000 0.0000 10026.1085 -168643.4442 97.4809 -178669.5527 -168633.8105 97.4809 -2286.5383 -2389.5731 534946.2959 -2286.5383 -2389.5731
ENERGY: 1000 1237.0087 1973.7676 3122.0708 0.0000 -193173.2477 26232.4977 755.0632 0.0000 24031.0292 -135821.8105 233.6466 -159852.8397 -135797.3080 218.3748 19.4132 36.0397 522133.6606 -12.8286 -13.2823
ENERGY: 2000 1447.6210 2165.8903 3126.9842 0.0000 -184018.3016 23341.9872 775.1258 0.0000 27815.9314 -125344.7618 270.4461 -153160.6932 -125303.2169 264.4714 -16.5525 -14.5288 515249.1391 -29.2103 -28.4664
ENERGY: 3000 1488.9693 2213.4246 3133.9235 0.0000 -179014.6326 21529.5944 785.2811 0.0000 29649.9172 -120213.5224 288.2774 -149863.4397 -120182.2993 284.7679 11.8203 -3.1178 510139.9201 -22.3088 -22.5735
ENERGY: 4000 1543.6808 2272.3284 3149.7664 0.0000 -177024.8713 20836.8074 800.9674 0.0000 30270.0311 -118151.2898 294.3066 -148421.3209 -118111.1894 292.8408 -17.5338 28.7714 507023.9261 -14.8020 -14.8389
ENERGY: 5000 1576.7963 2204.0356 3152.5125 0.0000 -176336.5670 20556.6292 806.6316 0.0000 30776.0466 -117263.9152 299.2264 -148039.9618 -117215.2732 297.1141 39.3067 -7.8529 506303.2564 2.1425 1.9565
TCL: Setting parameter constraintScaling to 5.0
TCL: Running for 5000 steps
ETITLE: TS BOND ANGLE DIHED IMPRP ELECT VDW BOUNDARY MISC KINETIC TOTAL TEMP POTENTIAL TOTAL3 TEMPAVG PRESSURE GPRESSURE VOLUME PRESSAVG GPRESSAVG
ENERGY: 5000 1576.7963 2204.0356 3152.5125 0.0000 -176336.5670 20556.6292 403.3158 0.0000 30773.9957 -117669.2819 299.2065 -148443.2777 -117624.1019 299.2065 -3.5469 -50.6437 506303.2564 -3.5469 -50.6437
ENERGY: 6000 1590.6958 2375.8623 3154.6921 0.0000 -175238.8950 20264.3762 652.7103 0.0000 30776.4496 -116424.1087 299.2303 -147200.5583 -116373.2567 298.6459 -118.2634 -91.7549 504857.5262 -11.9382 -11.6050
ENERGY: 7000 1602.4416 2279.4657 3141.9248 0.0000 -175250.0169 20231.9661 627.6876 0.0000 30690.1431 -116676.3880 298.3912 -147366.5311 -116622.7698 299.6614 40.2129 0.3108 503972.9563 -16.7419 -16.6028
ENERGY: 8000 1547.9568 2330.9424 3203.0935 0.0000 -175150.9492 20035.4870 648.5872 0.0000 30762.3877 -116622.4946 299.0936 -147384.8822 -116577.5083 299.3565 -4.5821 15.8276 503640.4749 -2.1909 -2.3215
ENERGY: 9000 1625.8938 2326.3663 3176.4641 0.0000 -175489.0403 20128.2658 644.9990 0.0000 30760.1793 -116826.8720 299.0721 -147587.0513 -116778.7332 298.9632 -39.4517 -1.4748 501414.7933 -7.4627 -7.4948
ENERGY: 10000 1568.3134 2288.4193 3155.4193 0.0000 -175129.6641 19811.4248 653.7587 0.0000 30687.2086 -116965.1201 298.3627 -147652.3287 -116916.9037 299.7325 -54.6397 55.1811 499456.9384 -3.5275 -3.6171
TCL: Setting parameter constraintScaling to 2.5
TCL: Running for 5000 steps
ETITLE: TS BOND ANGLE DIHED IMPRP ELECT VDW BOUNDARY MISC KINETIC TOTAL TEMP POTENTIAL TOTAL3 TEMPAVG PRESSURE GPRESSURE VOLUME PRESSAVG GPRESSAVG
ENERGY: 10000 1568.3134 2288.4193 3155.4193 0.0000 -175129.6641 19811.4248 326.8794 0.0000 30685.1578 -117294.0503 298.3427 -147979.2080 -117252.1442 298.3427 -169.1423 -57.3481 499456.9384 -169.1423 -57.3481
ENERGY: 11000 1622.7221 2324.6156 3201.3783 0.0000 -175792.3997 20079.8172 519.9484 0.0000 30797.6624 -117246.2557 299.4366 -148043.9181 -117202.2439 299.1072 -13.4246 -7.4851 499947.4273 6.1352 5.7449
ENERGY: 12000 1607.5165 2297.7787 3187.6608 0.0000 -175606.1568 20186.1023 515.9316 0.0000 30610.9744 -117200.1924 297.6215 -147811.1669 -117158.8043 298.6657 38.1312 -10.8520 499600.8097 -0.5014 -1.2660
ENERGY: 13000 1667.4263 2327.1011 3193.6481 0.0000 -175620.7185 20101.2114 495.2360 0.0000 30845.9578 -116990.1378 299.9061 -147836.0956 -116947.2451 299.3248 -75.9555 2.9180 498611.0392 -3.5037 -3.9753
ENERGY: 14000 1570.6362 2355.3509 3174.8092 0.0000 -175728.2452 19972.3547 535.3673 0.0000 30848.7467 -117270.9801 299.9333 -148119.7268 -117229.3008 299.4832 -68.4969 -10.1666 499033.0091 -4.7401 -4.8935
ENERGY: 15000 1606.2195 2354.7839 3167.9088 0.0000 -175586.4581 19962.9561 473.9776 0.0000 30787.7185 -117232.8937 299.3399 -148020.6122 -117189.4225 299.6898 -2.0377 -22.8728 499321.0193 2.2598 2.1903
TCL: Setting parameter constraintScaling to 1.25
TCL: Running for 5000 steps
ETITLE: TS BOND ANGLE DIHED IMPRP ELECT VDW BOUNDARY MISC KINETIC TOTAL TEMP POTENTIAL TOTAL3 TEMPAVG PRESSURE GPRESSURE VOLUME PRESSAVG GPRESSAVG
ENERGY: 15000 1606.2195 2354.7839 3167.9088 0.0000 -175586.4581 19962.9561 236.9888 0.0000 30785.6932 -117471.9078 299.3202 -148257.6010 -117427.6106 299.3202 -50.6144 -73.5954 499321.0193 -50.6144 -73.5954
ENERGY: 16000 1606.5975 2393.4914 3203.4171 0.0000 -175309.9945 20139.0644 398.7748 0.0000 30781.6487 -116787.0006 299.2809 -147568.6494 -116752.1092 299.5495 -53.1107 0.8669 498281.0457 4.6830 5.0024
ENERGY: 17000 1660.6743 2348.2525 3224.1439 0.0000 -175521.8404 20122.8041 405.8451 0.0000 30510.4023 -117249.7181 296.6436 -147760.1204 -117206.9666 298.8745 59.3109 64.7357 498811.3847 0.4755 0.5585
ENERGY: 18000 1666.4335 2378.5846 3180.9701 0.0000 -175774.4856 20060.2719 415.7090 0.0000 30821.4654 -117251.0512 299.6680 -148072.5165 -117197.2236 299.6229 -33.0867 -25.7817 498785.7111 3.6285 3.2568
ENERGY: 19000 1609.4320 2447.0220 3200.6728 0.0000 -175878.2933 20171.5411 378.2603 0.0000 31080.8092 -116990.5560 302.1895 -148071.3652 -116943.9107 300.0807 -49.4508 -56.8287 499828.6248 11.4339 11.3711
ENERGY: 20000 1629.4833 2357.0546 3236.0209 0.0000 -176198.8881 20298.9324 372.1018 0.0000 30846.8311 -117458.4639 299.9146 -148305.2950 -117414.9010 300.0150 98.7842 53.9046 498121.3147 0.2173 0.6985
TCL: Setting parameter constraintScaling to 0.625
TCL: Running for 5000 steps
ETITLE: TS BOND ANGLE DIHED IMPRP ELECT VDW BOUNDARY MISC KINETIC TOTAL TEMP POTENTIAL TOTAL3 TEMPAVG PRESSURE GPRESSURE VOLUME PRESSAVG GPRESSAVG
ENERGY: 20000 1629.4833 2357.0546 3236.0209 0.0000 -176198.8881 20298.9324 186.0509 0.0000 30844.7706 -117646.5753 299.8946 -148491.3459 -117605.4528 299.8946 75.4947 25.4399 498121.3147 75.4947 25.4399
ENERGY: 21000 1615.4300 2461.8558 3159.4805 0.0000 -175401.5736 19750.3089 297.5475 0.0000 30921.9282 -117195.0226 300.6448 -148116.9508 -117150.4161 299.8807 -78.0705 -32.4663 496187.6680 -9.5935 -9.9060
ENERGY: 22000 1604.8542 2334.5161 3197.2258 0.0000 -175672.7386 19897.1586 325.9556 0.0000 30915.8969 -117397.1314 300.5861 -148313.0283 -117360.2922 299.9104 -41.1407 47.6812 496425.2849 8.4236 8.3975
ENERGY: 23000 1558.1031 2392.7723 3197.9344 0.0000 -175814.1492 20065.9449 314.3785 0.0000 30733.1959 -117551.8201 298.8098 -148285.0159 -117508.8848 299.6174 48.1604 0.7265 496942.1676 2.0271 1.4810
ENERGY: 24000 1618.5547 2405.6998 3217.8616 0.0000 -175947.7367 20172.9508 332.8220 0.0000 31003.5979 -117196.2498 301.4388 -148199.8477 -117154.3759 299.8183 25.2490 55.9844 497724.2487 1.4831 1.7249
ENERGY: 25000 1601.2460 2400.7328 3192.7963 0.0000 -176012.4301 20000.9450 321.4052 0.0000 30963.2867 -117532.0181 301.0469 -148495.3048 -117487.7639 299.4431 57.8021 87.6512 496339.2565 -6.2355 -5.9457
TCL: Setting parameter constraintScaling to 0.3125
TCL: Running for 5000 steps
ETITLE: TS BOND ANGLE DIHED IMPRP ELECT VDW BOUNDARY MISC KINETIC TOTAL TEMP POTENTIAL TOTAL3 TEMPAVG PRESSURE GPRESSURE VOLUME PRESSAVG GPRESSAVG
ENERGY: 25000 1601.2460 2400.7328 3192.7963 0.0000 -176012.4301 20000.9450 160.7026 0.0000 30961.2403 -117694.7671 301.0270 -148656.0074 -117655.2020 301.0270 42.5891 72.3120 496339.2565 42.5891 72.3120
ENERGY: 26000 1598.9673 2371.7094 3231.7623 0.0000 -175392.8165 19940.0873 243.9336 0.0000 30725.4900 -117280.8666 298.7349 -148006.3566 -117230.7052 299.2670 34.3396 104.6984 497729.2351 18.8947 19.3292
ENERGY: 27000 1578.1916 2394.5897 3215.7480 0.0000 -175708.0051 20089.4017 258.2179 0.0000 30666.5158 -117505.3404 298.1615 -148171.8562 -117469.6154 299.4580 13.1622 19.6720 495882.6874 -1.3630 -1.5214
ENERGY: 28000 1548.6251 2434.9168 3188.5462 0.0000 -175710.6049 20072.8067 239.9402 0.0000 30951.5850 -117274.1850 300.9331 -148225.7699 -117222.1552 299.7808 55.6512 5.1367 496274.2928 2.9244 2.8220
ENERGY: 29000 1636.3823 2433.2360 3190.8175 0.0000 -175387.7929 19823.5700 237.4471 0.0000 30926.1340 -117140.2060 300.6857 -148066.3400 -117095.9428 299.4172 32.9192 53.8232 497736.0676 -0.7482 -1.3706
ENERGY: 30000 1662.9767 2373.2578 3203.6364 0.0000 -176025.7295 20225.7913 247.8620 0.0000 30781.8203 -117530.3850 299.2826 -148312.2053 -117495.4900 299.5681 56.9988 63.9471 496077.6184 0.1498 0.0365
TCL: Setting parameter constraintScaling to 0.15625
TCL: Running for 5000 steps
ETITLE: TS BOND ANGLE DIHED IMPRP ELECT VDW BOUNDARY MISC KINETIC TOTAL TEMP POTENTIAL TOTAL3 TEMPAVG PRESSURE GPRESSURE VOLUME PRESSAVG GPRESSAVG
ENERGY: 30000 1662.9767 2373.2578 3203.6364 0.0000 -176025.7295 20225.7913 123.9310 0.0000 30779.7713 -117656.3650 299.2626 -148436.1363 -117612.9363 299.2626 38.5015 54.2585 496077.6184 38.5015 54.2585
ENERGY: 31000 1673.2174 2405.3644 3198.3019 0.0000 -175472.6980 19936.1324 198.2008 0.0000 30739.2593 -117322.2219 298.8687 -148061.4812 -117266.9178 299.9363 78.9465 98.0595 496848.7667 5.3808 5.7316
ENERGY: 32000 1680.3221 2398.4071 3212.1861 0.0000 -175703.9101 20055.4554 205.9667 0.0000 30785.3504 -117366.2223 299.3169 -148151.5727 -117320.6473 299.6873 33.9183 123.2240 498199.6969 5.0561 5.3740
ENERGY: 33000 1614.2829 2323.9929 3189.0050 0.0000 -175913.9834 20147.9009 210.5444 0.0000 30973.7895 -117454.4679 301.1490 -148428.2574 -117402.2159 299.7450 -5.5193 43.6030 497587.5661 -9.8035 -10.5343
ENERGY: 34000 1666.9136 2360.0654 3186.3877 0.0000 -175582.5091 20010.9598 190.2424 0.0000 30843.7723 -117324.1678 299.8849 -148167.9401 -117285.2018 300.4416 -105.7570 -12.1191 499465.5426 10.1542 10.5464
ENERGY: 35000 1655.8235 2434.5060 3224.6691 0.0000 -176193.9981 20111.8156 204.8973 0.0000 30952.0664 -117610.2202 300.9378 -148562.2866 -117573.8482 299.4953 -56.1039 -6.7551 497593.8708 -3.0139 -2.6074
TCL: Setting parameter constraintScaling to 0.078125
TCL: Running for 5000 steps
ETITLE: TS BOND ANGLE DIHED IMPRP ELECT VDW BOUNDARY MISC KINETIC TOTAL TEMP POTENTIAL TOTAL3 TEMPAVG PRESSURE GPRESSURE VOLUME PRESSAVG GPRESSAVG
ENERGY: 35000 1655.8235 2434.5060 3224.6691 0.0000 -176193.9981 20111.8156 102.4487 0.0000 30950.0206 -117714.7147 300.9179 -148664.7353 -117671.2361 300.9179 -74.7915 -29.2097 497593.8708 -74.7915 -29.2097
ENERGY: 36000 1703.9769 2389.4846 3254.9879 0.0000 -175935.2995 20268.7894 168.1548 0.0000 30752.4833 -117397.4226 298.9973 -148149.9060 -117350.7248 300.8634 -14.9182 69.4394 497463.5723 5.6678 5.4511
ENERGY: 37000 1653.2678 2451.1965 3245.5913 0.0000 -175777.4193 20148.5194 158.6697 0.0000 30671.9613 -117448.2134 298.2144 -148120.1747 -117409.4977 300.3726 -14.3865 21.4478 497469.8540 -4.6308 -4.6605
ENERGY: 38000 1651.2413 2428.6324 3231.8214 0.0000 -176117.8421 20181.9303 151.6751 0.0000 30895.0987 -117577.4429 300.3839 -148472.5416 -117517.5375 300.0868 -67.5954 -66.5697 497186.7714 -7.2532 -7.6041
ENERGY: 39000 1587.9977 2395.7667 3185.6843 0.0000 -175925.1035 20124.3518 161.7230 0.0000 30607.2071 -117862.3730 297.5848 -148469.5800 -117819.1690 298.6742 98.5288 159.9281 497061.1117 -3.2511 -2.6470
ENERGY: 40000 1628.6722 2353.2911 3200.9160 0.0000 -176222.3602 20111.0074 159.7436 0.0000 30949.1721 -117819.5578 300.9097 -148768.7299 -117772.7886 297.9172 -39.3858 -39.5690 497028.6212 -1.7316 -1.5714
TCL: Setting parameter constraintScaling to 0.0390625
TCL: Running for 5000 steps
ETITLE: TS BOND ANGLE DIHED IMPRP ELECT VDW BOUNDARY MISC KINETIC TOTAL TEMP POTENTIAL TOTAL3 TEMPAVG PRESSURE GPRESSURE VOLUME PRESSAVG GPRESSAVG
ENERGY: 40000 1628.6722 2353.2911 3200.9160 0.0000 -176222.3602 20111.0074 79.8718 0.0000 30947.1053 -117901.4963 300.8896 -148848.6017 -117859.8988 300.8896 -57.8093 -57.3754 497028.6212 -57.8093 -57.3754
ENERGY: 41000 1648.7529 2449.6211 3242.5021 0.0000 -176066.5210 20155.4670 100.3699 0.0000 30797.7622 -117672.0457 299.4375 -148469.8079 -117633.4996 299.4150 -22.2746 8.3705 498101.9900 11.9653 12.0672
ENERGY: 42000 1580.0977 2440.5441 3219.0079 0.0000 -175880.2007 19832.8720 117.9857 0.0000 30830.9623 -117858.7310 299.7603 -148689.6933 -117804.8109 298.6431 25.9529 -45.7159 495688.1157 -12.8300 -13.1665
ENERGY: 43000 1659.5359 2477.7820 3208.4531 0.0000 -176269.2161 20069.7949 116.7925 0.0000 30872.0068 -117864.8509 300.1594 -148736.8577 -117821.0747 300.1464 -261.9986 -157.1480 496751.4689 0.3979 -0.3757
ENERGY: 44000 1658.2672 2442.6664 3184.7387 0.0000 -176107.5158 20032.3499 123.0517 0.0000 30927.9334 -117738.5084 300.7032 -148666.4418 -117683.6281 299.2078 -39.4457 -35.4672 495871.2534 0.8945 0.7408
ENERGY: 45000 1674.4466 2402.9026 3212.9883 0.0000 -175846.3482 19995.3487 126.2811 0.0000 30925.5406 -117508.8403 300.6799 -148434.3809 -117465.2195 300.1535 79.5862 6.5577 496002.4403 2.7899 2.7124
TCL: Setting parameter constraintScaling to 0.01953125
TCL: Running for 5000 steps
ETITLE: TS BOND ANGLE DIHED IMPRP ELECT VDW BOUNDARY MISC KINETIC TOTAL TEMP POTENTIAL TOTAL3 TEMPAVG PRESSURE GPRESSURE VOLUME PRESSAVG GPRESSAVG
ENERGY: 45000 1674.4466 2402.9026 3212.9883 0.0000 -175846.3482 19995.3487 63.1406 0.0000 30923.4884 -117574.0330 300.6599 -148497.5215 -117533.3844 300.6599 75.6857 0.2358 496002.4403 75.6857 0.2358
ENERGY: 46000 1659.9163 2417.0328 3229.3115 0.0000 -175663.6524 19920.5730 83.6727 0.0000 30760.2907 -117592.8555 299.0732 -148353.1462 -117539.6159 299.5181 -8.3794 -30.6957 495969.7894 3.3382 3.1374
ENERGY: 47000 1669.8697 2411.5650 3218.3847 0.0000 -175876.0154 20039.2867 87.1197 0.0000 30748.6852 -117701.1044 298.9604 -148449.7896 -117649.5608 299.7292 -144.7235 -100.2840 498075.0938 1.8401 2.3885
ENERGY: 48000 1625.2184 2406.6773 3190.5968 0.0000 -175826.8728 19951.9783 83.9775 0.0000 30932.0954 -117636.3292 300.7436 -148568.4246 -117589.6079 299.9218 -82.1348 -49.8140 496521.7865 0.5348 0.4356
ENERGY: 49000 1597.5458 2382.8834 3207.1797 0.0000 -175665.5557 19876.9496 82.8805 0.0000 30985.3180 -117532.7987 301.2611 -148518.1167 -117485.4002 298.8699 -158.9157 -60.6688 497771.1733 2.5768 3.5496
ENERGY: 50000 1652.7420 2412.3234 3216.1225 0.0000 -176037.2440 20100.3707 87.2478 0.0000 30811.0655 -117757.3721 299.5669 -148568.4376 -117727.5870 299.8076 9.0747 53.3416 497759.0946 14.0131 13.9561
TCL: Setting parameter constraintScaling to 0
TCL: Running for 5000 steps
ETITLE: TS BOND ANGLE DIHED IMPRP ELECT VDW BOUNDARY MISC KINETIC TOTAL TEMP POTENTIAL TOTAL3 TEMPAVG PRESSURE GPRESSURE VOLUME PRESSAVG GPRESSAVG
ENERGY: 50000 1652.7420 2412.3234 3216.1225 0.0000 -176037.2440 20100.3707 0.0000 0.0000 30808.9846 -117846.7008 299.5467 -148655.6854 -117803.7925 299.5467 -23.3725 29.0250 497759.0946 -23.3725 29.0250
ENERGY: 51000 1668.4286 2446.2857 3165.8393 0.0000 -176059.2102 20171.1831 0.0000 0.0000 30899.9792 -117707.4943 300.4314 -148607.4735 -117654.3122 300.4499 16.2287 -18.4781 497989.7923 -3.7798 -3.4297
ENERGY: 52000 1643.3807 2388.1166 3221.5889 0.0000 -175848.6422 20070.2633 0.0000 0.0000 30732.4771 -117792.8155 298.8028 -148525.2927 -117753.9478 300.3482 -53.2512 0.5621 497871.1905 -1.2343 -0.5266
ENERGY: 53000 1639.1423 2364.2099 3206.4739 0.0000 -175998.3796 20088.8238 0.0000 0.0000 30595.7044 -118104.0252 297.4730 -148699.7296 -118060.2305 299.1113 -38.0990 -39.0105 496799.0114 -2.5228 -3.0347
ENERGY: 54000 1672.4325 2382.5578 3189.9184 0.0000 -175913.1059 20049.1149 0.0000 0.0000 30578.5931 -118040.4893 297.3066 -148619.0824 -118005.8366 299.1130 -102.1149 -17.0881 496592.0883 0.1849 0.5123
ENERGY: 55000 1650.4108 2431.8146 3189.9006 0.0000 -175629.6186 20105.6668 0.0000 0.0000 30896.6290 -117355.1968 300.3988 -148251.8258 -117301.5302 299.9163 -71.9235 60.5353 498641.7782 13.4129 13.2403
