Info: SIMULATION PARAMETERS:
Info: TIMESTEP               2
Info: NUMBER OF STEPS        0
Info: STEPS PER CYCLE        10
Info: PERIODIC CELL BASIS 1  72.449 0 0
Info: PERIODIC CELL BASIS 2  0 93.247 0
Info: PERIODIC CELL BASIS 3  0 0 79.185
Info: PERIODIC CELL CENTER   -0.248 -0.156 -0.047
Info: WRAPPING WATERS AROUND PERIODIC BOUNDARIES ON OUTPUT.
Info: WRAPPING ALL CLUSTERS AROUND PERIODIC BOUNDARIES ON OUTPUT.
Info: FIRST LDB TIMESTEP     50
Info: LAST LDB TIMESTEP     -1
Info: HOM BACKGROUND SCALING 1
Info: PME BACKGROUND SCALING 1
Info: MIN ATOMS PER PATCH    40
Info: INITIAL TEMPERATURE    0
Info: CENTER OF MASS MOVING INITIALLY? NO
Info: DIELECTRIC             1
Info: EXCLUDE                SCALED ONE-FOUR
Info: 1-4 ELECTROSTATICS SCALED BY 0.833333
Info: MODIFIED 1-4 VDW PARAMETERS WILL BE USED
Info: NO DCD TRAJECTORY OUTPUT
Info: NO EXTENDED SYSTEM TRAJECTORY OUTPUT
Info: NO VELOCITY DCD OUTPUT
Info: NO FORCE DCD OUTPUT
Info: OUTPUT FILENAME        ../replicas/rep6/equilibration/eq0
Info: NO RESTART FILE
Info: SWITCHING ACTIVE
Info: SWITCHING ON           10
Info: SWITCHING OFF          12
Info: PAIRLIST DISTANCE      13.5
Info: PAIRLIST SHRINK RATE   0.01
Info: PAIRLIST GROW RATE     0.01
Info: PAIRLIST TRIGGER       0.3
Info: PAIRLISTS PER CYCLE    2
Info: PAIRLISTS ENABLED
Info: MARGIN                 0
Info: HYDROGEN GROUP CUTOFF  2.5
Info: PATCH DIMENSION        16
Info: ENERGY OUTPUT STEPS    500
Info: CROSSTERM ENERGY INCLUDED IN DIHEDRAL
Info: TIMING OUTPUT STEPS    5000
Info: PRESSURE OUTPUT STEPS  500
Info: HARMONIC CONSTRAINTS ACTIVE
Info: HARMONIC CONS EXP      2
Info: HARMONIC CONS SCALING  10
Info: CONJUGATE GRADIENT MINIMIZATION ACTIVE
Info: LINE MINIMIZATION GOAL = 0.001
Info: BABY STEP SIZE = 0.01
Info: TINY STEP SIZE = 1e-06
Info: PARTICLE MESH EWALD (PME) ACTIVE
Info: PME TOLERANCE               1e-06
Info: PME EWALD COEFFICIENT       0.257952
Info: PME INTERPOLATION ORDER     4
Info: PME GRID DIMENSIONS         80 96 80
Info: PME MAXIMUM GRID SPACING    1
Info: FULL ELECTROSTATIC EVALUATION FREQUENCY      2
Info: USING VERLET I (r-RESPA) MTS SCHEME.
Info: C1 SPLITTING OF LONG RANGE ELECTROSTATICS
Info: PLACING ATOMS IN PATCHES BY HYDROGEN GROUPS
Info: RIGID BONDS TO HYDROGEN : ALL
Info:         ERROR TOLERANCE : 1e-05
Info:          MAX ITERATIONS : 100
Info: RIGID WATER USING SETTLE ALGORITHM
Info: RANDOM NUMBER SEED     1503250382
Info: USE HYDROGEN BONDS?    NO
Info: Using AMBER format force field!
Info: AMBER PARM FILE        ../build/complex.top
Info: COORDINATE PDB         ../build/complex.pdb
Info: Exclusions in PARM file will be ignored!
Info: SCNB (VDW SCALING)     2
Info: USING ARITHMETIC MEAN TO COMBINE L-J SIGMA PARAMETERS
Info: SUMMARY OF PARAMETERS:
Info: 71 BONDS
Info: 145 ANGLES
Info: 76 DIHEDRAL
Info: 0 IMPROPER
Info: 0 CROSSTERM
Info: 0 VDW
Info: 190 VDW_PAIRS
Info: 0 NBTHOLE_PAIRS
Info: STRUCTURE SUMMARY:
Info: 49394 ATOMS
Info: 49448 BONDS
Info: 8698 ANGLES
Info: 18780 DIHEDRALS
Info: 0 IMPROPERS
Info: 0 CROSSTERMS
Info: 0 EXCLUSIONS
Info: 2336 CONSTRAINTS
Info: 47058 RIGID BONDS
Info: 101124 DEGREES OF FREEDOM
Info: 17225 HYDROGEN GROUPS
Info: 4 ATOMS IN LARGEST HYDROGEN GROUP
Info: 17225 MIGRATION GROUPS
Info: 4 ATOMS IN LARGEST MIGRATION GROUP
Info: TOTAL MASS = 301478 amu
Info: TOTAL CHARGE = 1.00115e-05 e
Info: MASS DENSITY = 0.935846 g/cm^3
Info: ATOM DENSITY = 0.0923345 atoms/A^3
Info: ADDED 70656 IMPLICIT EXCLUSIONS
Info: NONBONDED TABLE R-SQUARED SPACING: 0.0625
Info: NONBONDED TABLE SIZE: 769 POINTS
Info: REMOVING COM VELOCITY 0 0 0
TCL: Minimizing for 100 steps
ETITLE: TS BOND ANGLE DIHED IMPRP ELECT VDW BOUNDARY MISC KINETIC TOTAL TEMP POTENTIAL TOTAL3 TEMPAVG PRESSURE GPRESSURE VOLUME PRESSAVG GPRESSAVG
ENERGY: 0 155.4176 1012.2698 2855.7272 0.0000 -154496.7912 207729.2052 0.0468 0.0000 0.0000 57255.8754 0.0000 57255.8754 57255.8754 0.0000 116350.2532 86546.1670 534946.2959 116350.2532 86546.1670
ENERGY: 20 304.7533 935.7910 2893.4663 0.0000 -158672.9393 17936.6601 143.9453 0.0000 0.0000 -136458.3234 0.0000 -136458.3234 -136458.3234 0.0000 16523.9395 -239.4550 534946.2959 16523.9395 -239.4550
ENERGY: 40 198.7401 799.5721 2896.9273 0.0000 -162811.4540 16417.9533 221.3029 0.0000 0.0000 -142276.9584 0.0000 -142276.9584 -142276.9584 0.0000 15011.2701 -2135.4701 534946.2959 15011.2701 -2135.4701
ENERGY: 60 130.5287 715.3441 2898.2165 0.0000 -167496.1534 15446.7545 315.2795 0.0000 0.0000 -147990.0301 0.0000 -147990.0301 -147990.0301 0.0000 13793.8846 -3799.3975 534946.2959 13793.8846 -3799.3975
ENERGY: 80 431.2763 765.6315 2904.3781 0.0000 -169937.5120 15121.1544 372.0118 0.0000 0.0000 -150343.0599 0.0000 -150343.0599 -150343.0599 0.0000 13270.3351 -4577.2397 534946.2959 13270.3351 -4577.2397
ENERGY: 100 119.3921 710.0608 2905.2587 0.0000 -171259.7210 14991.7859 387.3613 0.0000 0.0000 -152145.8622 0.0000 -152145.8622 -152145.8622 0.0000 13056.2639 -4908.1758 534946.2959 13056.2639 -4908.1758
TCL: Setting parameter constraintScaling to 5.0
TCL: Minimizing for 100 steps
ETITLE: TS BOND ANGLE DIHED IMPRP ELECT VDW BOUNDARY MISC KINETIC TOTAL TEMP POTENTIAL TOTAL3 TEMPAVG PRESSURE GPRESSURE VOLUME PRESSAVG GPRESSAVG
ENERGY: 100 119.3921 710.0608 2905.2587 0.0000 -171259.7210 14991.7859 193.6806 0.0000 0.0000 -152339.5428 0.0000 -152339.5428 -152339.5428 0.0000 13672.7701 -23021.8215 534946.2959 13672.7701 -23021.8215
ENERGY: 120 108.8917 687.5875 2912.9271 0.0000 -172865.8510 14798.2721 281.1910 0.0000 0.0000 -154076.9817 0.0000 -154076.9817 -154076.9817 0.0000 13218.2594 -4906.0079 534946.2959 13218.2594 -4906.0079
ENERGY: 140 309.5523 708.8879 2913.8028 0.0000 -174236.4107 14731.4945 326.6320 0.0000 0.0000 -155246.0411 0.0000 -155246.0411 -155246.0411 0.0000 12971.5525 -5303.1853 534946.2959 12971.5525 -5303.1853
ENERGY: 160 264.6431 682.9402 2923.1400 0.0000 -176271.8452 14757.1286 382.7598 0.0000 0.0000 -157261.2336 0.0000 -157261.2336 -157261.2336 0.0000 12741.3996 -5742.2865 534946.2959 12741.3996 -5742.2865
ENERGY: 180 269.2806 744.0836 2928.5662 0.0000 -178992.6386 15023.0514 473.1587 0.0000 0.0000 -159554.4980 0.0000 -159554.4980 -159554.4980 0.0000 12521.7543 -6223.5665 534946.2959 12521.7543 -6223.5665
ENERGY: 200 238.5207 694.1410 2941.3386 0.0000 -181554.3514 15586.6103 546.2312 0.0000 0.0000 -161547.5097 0.0000 -161547.5097 -161547.5097 0.0000 12582.6207 -6430.7855 534946.2959 12582.6207 -6430.7855
TCL: Setting parameter constraintScaling to 2.5
TCL: Minimizing for 100 steps
ETITLE: TS BOND ANGLE DIHED IMPRP ELECT VDW BOUNDARY MISC KINETIC TOTAL TEMP POTENTIAL TOTAL3 TEMPAVG PRESSURE GPRESSURE VOLUME PRESSAVG GPRESSAVG
ENERGY: 200 238.5207 694.1410 2941.3386 0.0000 -181554.3514 15586.6103 273.1156 0.0000 0.0000 -161820.6253 0.0000 -161820.6253 -161820.6253 0.0000 13229.4808 -25661.4366 534946.2959 13229.4808 -25661.4366
ENERGY: 220 246.0983 677.6808 2933.0019 0.0000 -182075.3506 15471.3158 337.7315 0.0000 0.0000 -162409.5221 0.0000 -162409.5221 -162409.5221 0.0000 12971.1430 -6096.9665 534946.2959 12971.1430 -6096.9665
ENERGY: 240 115.5817 674.1104 2928.4182 0.0000 -182571.2346 15510.3743 345.0641 0.0000 0.0000 -162997.6859 0.0000 -162997.6859 -162997.6859 0.0000 13036.1508 -6123.6570 534946.2959 13036.1508 -6123.6570
ENERGY: 260 144.7934 675.3890 2920.9140 0.0000 -184109.6234 15840.5951 391.1886 0.0000 0.0000 -164136.7434 0.0000 -164136.7434 -164136.7434 0.0000 13045.5173 -6263.0866 534946.2959 13045.5173 -6263.0866
ENERGY: 280 172.5092 700.6681 2917.6915 0.0000 -185424.0419 16230.1279 454.3938 0.0000 0.0000 -164948.6513 0.0000 -164948.6513 -164948.6513 0.0000 13144.8506 -6344.1346 534946.2959 13144.8506 -6344.1346
ENERGY: 300 139.0046 653.4180 2920.1429 0.0000 -186824.7676 16739.2990 524.7985 0.0000 0.0000 -165848.1046 0.0000 -165848.1046 -165848.1046 0.0000 13277.1007 -6351.2523 534946.2959 13277.1007 -6351.2523
TCL: Setting parameter constraintScaling to 1.25
TCL: Minimizing for 100 steps
ETITLE: TS BOND ANGLE DIHED IMPRP ELECT VDW BOUNDARY MISC KINETIC TOTAL TEMP POTENTIAL TOTAL3 TEMPAVG PRESSURE GPRESSURE VOLUME PRESSAVG GPRESSAVG
ENERGY: 300 139.0046 653.4180 2920.1429 0.0000 -186824.7676 16739.2990 262.3993 0.0000 0.0000 -166110.5038 0.0000 -166110.5038 -166110.5038 0.0000 13743.9149 -26446.1140 534946.2959 13743.9149 -26446.1140
ENERGY: 320 151.8086 679.0434 2906.0588 0.0000 -187661.4606 16959.7908 297.4941 0.0000 0.0000 -166667.2647 0.0000 -166667.2647 -166667.2647 0.0000 13755.5995 -5956.5309 534946.2959 13755.5995 -5956.5309
ENERGY: 340 142.8364 658.4691 2909.0182 0.0000 -188105.8319 17091.3098 316.9750 0.0000 0.0000 -166987.2234 0.0000 -166987.2234 -166987.2234 0.0000 13824.2012 -5957.4950 534946.2959 13824.2012 -5957.4950
ENERGY: 360 166.0076 647.6997 2907.1460 0.0000 -189023.4132 17399.2227 343.4869 0.0000 0.0000 -167559.8504 0.0000 -167559.8504 -167559.8504 0.0000 13916.6625 -5970.6876 534946.2959 13916.6625 -5970.6876
ENERGY: 380 214.3152 718.8125 2900.2294 0.0000 -190311.2157 17892.2133 371.7915 0.0000 0.0000 -168213.8538 0.0000 -168213.8538 -168213.8538 0.0000 14089.1945 -5921.6974 534946.2959 14089.1945 -5921.6974
ENERGY: 400 136.5398 633.9266 2902.5003 0.0000 -190466.9837 17900.1415 384.3270 0.0000 0.0000 -168509.5484 0.0000 -168509.5484 -168509.5484 0.0000 14090.1184 -5953.1344 534946.2959 14090.1184 -5953.1344
TCL: Setting parameter constraintScaling to 0.625
TCL: Minimizing for 100 steps
ETITLE: TS BOND ANGLE DIHED IMPRP ELECT VDW BOUNDARY MISC KINETIC TOTAL TEMP POTENTIAL TOTAL3 TEMPAVG PRESSURE GPRESSURE VOLUME PRESSAVG GPRESSAVG
ENERGY: 400 136.5398 633.9266 2902.5003 0.0000 -190466.9837 17900.1415 192.1635 0.0000 0.0000 -168701.7119 0.0000 -168701.7119 -168701.7119 0.0000 14384.5827 -26652.2482 534946.2959 14384.5827 -26652.2482
ENERGY: 420 241.6143 650.5218 2892.7214 0.0000 -191032.2341 18059.8207 218.9074 0.0000 0.0000 -168968.6485 0.0000 -168968.6485 -168968.6485 0.0000 14407.9625 -5706.2688 534946.2959 14407.9625 -5706.2688
ENERGY: 440 172.7753 655.5207 2898.8713 0.0000 -191584.6828 18242.4754 236.4819 0.0000 0.0000 -169378.5581 0.0000 -169378.5581 -169378.5581 0.0000 14390.3445 -5752.6689 534946.2959 14390.3445 -5752.6689
ENERGY: 460 148.4744 643.6122 2891.4208 0.0000 -192359.5069 18521.1783 259.8840 0.0000 0.0000 -169894.9371 0.0000 -169894.9371 -169894.9371 0.0000 14544.7826 -5710.4610 534946.2959 14544.7826 -5710.4610
ENERGY: 480 209.4483 692.4092 2878.6755 0.0000 -193098.8732 18810.5236 282.2878 0.0000 0.0000 -170225.5287 0.0000 -170225.5287 -170225.5287 0.0000 14590.6841 -5728.6769 534946.2959 14590.6841 -5728.6769
ENERGY: 500 236.1663 732.4948 2892.7977 0.0000 -194666.7046 19436.3536 319.9694 0.0000 0.0000 -171048.9228 0.0000 -171048.9228 -171048.9228 0.0000 14988.9986 -5553.8309 534946.2959 14988.9986 -5553.8309
TCL: Setting parameter constraintScaling to 0.3125
TCL: Minimizing for 100 steps
ETITLE: TS BOND ANGLE DIHED IMPRP ELECT VDW BOUNDARY MISC KINETIC TOTAL TEMP POTENTIAL TOTAL3 TEMPAVG PRESSURE GPRESSURE VOLUME PRESSAVG GPRESSAVG
ENERGY: 500 236.1663 732.4948 2892.7977 0.0000 -194666.7046 19436.3536 159.9847 0.0000 0.0000 -171208.9075 0.0000 -171208.9075 -171208.9075 0.0000 15188.4176 -26829.2183 534946.2959 15188.4176 -26829.2183
ENERGY: 520 148.3186 633.1631 2871.9667 0.0000 -194877.5539 19522.9157 162.4825 0.0000 0.0000 -171538.7073 0.0000 -171538.7073 -171538.7073 0.0000 15145.8719 -5372.5298 534946.2959 15145.8719 -5372.5298
ENERGY: 540 276.2903 676.9051 2879.3880 0.0000 -195849.6846 19839.9708 196.1973 0.0000 0.0000 -171980.9330 0.0000 -171980.9330 -171980.9330 0.0000 15168.2696 -5448.8293 534946.2959 15168.2696 -5448.8293
ENERGY: 560 283.1362 688.1988 2873.2746 0.0000 -196322.6818 20004.2232 212.6278 0.0000 0.0000 -172261.2211 0.0000 -172261.2211 -172261.2211 0.0000 15265.0746 -5429.9142 534946.2959 15265.0746 -5429.9142
ENERGY: 580 161.1255 651.5956 2865.2180 0.0000 -196484.2778 20088.6529 206.9375 0.0000 0.0000 -172510.7483 0.0000 -172510.7483 -172510.7483 0.0000 15370.8406 -5343.4099 534946.2959 15370.8406 -5343.4099
ENERGY: 600 155.3011 669.2660 2877.1924 0.0000 -197234.6083 20418.5191 206.7888 0.0000 0.0000 -172907.5409 0.0000 -172907.5409 -172907.5409 0.0000 15576.7719 -5229.9329 534946.2959 15576.7719 -5229.9329
TCL: Setting parameter constraintScaling to 0.15625
TCL: Minimizing for 100 steps
ETITLE: TS BOND ANGLE DIHED IMPRP ELECT VDW BOUNDARY MISC KINETIC TOTAL TEMP POTENTIAL TOTAL3 TEMPAVG PRESSURE GPRESSURE VOLUME PRESSAVG GPRESSAVG
ENERGY: 600 155.3011 669.2660 2877.1924 0.0000 -197234.6083 20418.5191 103.3944 0.0000 0.0000 -173010.9353 0.0000 -173010.9353 -173010.9353 0.0000 15695.0894 -26942.0152 534946.2959 15695.0894 -26942.0152
ENERGY: 620 182.2634 666.4522 2862.9601 0.0000 -197474.4139 20455.3569 113.0525 0.0000 0.0000 -173194.3288 0.0000 -173194.3288 -173194.3288 0.0000 15645.7947 -5182.0740 534946.2959 15645.7947 -5182.0740
ENERGY: 640 157.0530 657.3591 2859.9741 0.0000 -198032.2566 20649.6473 125.2734 0.0000 0.0000 -173582.9496 0.0000 -173582.9496 -173582.9496 0.0000 15697.7897 -5194.0125 534946.2959 15697.7897 -5194.0125
ENERGY: 660 163.0236 672.3661 2854.8684 0.0000 -198771.2451 20940.4578 138.7694 0.0000 0.0000 -174001.7599 0.0000 -174001.7599 -174001.7599 0.0000 15831.7359 -5143.6613 534946.2959 15831.7359 -5143.6613
ENERGY: 680 170.2680 667.1249 2853.8373 0.0000 -199022.6302 21014.9026 139.5733 0.0000 0.0000 -174176.9241 0.0000 -174176.9241 -174176.9241 0.0000 15842.9036 -5156.6096 534946.2959 15842.9036 -5156.6096
ENERGY: 700 160.6648 668.7400 2853.0982 0.0000 -199602.7553 21273.8514 139.9729 0.0000 0.0000 -174506.4280 0.0000 -174506.4280 -174506.4280 0.0000 16040.9749 -5037.2950 534946.2959 16040.9749 -5037.2950
TCL: Setting parameter constraintScaling to 0.078125
TCL: Minimizing for 100 steps
ETITLE: TS BOND ANGLE DIHED IMPRP ELECT VDW BOUNDARY MISC KINETIC TOTAL TEMP POTENTIAL TOTAL3 TEMPAVG PRESSURE GPRESSURE VOLUME PRESSAVG GPRESSAVG
ENERGY: 700 160.6648 668.7400 2853.0982 0.0000 -199602.7553 21273.8514 69.9864 0.0000 0.0000 -174576.4145 0.0000 -174576.4145 -174576.4145 0.0000 16112.4024 -27088.0194 534946.2959 16112.4024 -27088.0194
ENERGY: 720 155.9700 640.5971 2845.7026 0.0000 -199782.1367 21311.6245 72.7912 0.0000 0.0000 -174755.4512 0.0000 -174755.4512 -174755.4512 0.0000 16118.1605 -4982.9533 534946.2959 16118.1605 -4982.9533
ENERGY: 740 194.6168 694.4722 2842.2771 0.0000 -200146.9633 21436.1247 79.3349 0.0000 0.0000 -174900.1376 0.0000 -174900.1376 -174900.1376 0.0000 16121.1134 -5019.4809 534946.2959 16121.1134 -5019.4809
ENERGY: 760 165.3305 655.4346 2840.5483 0.0000 -200176.7272 21440.4698 79.0973 0.0000 0.0000 -174995.8467 0.0000 -174995.8467 -174995.8467 0.0000 16133.2361 -5009.1497 534946.2959 16133.2361 -5009.1497
ENERGY: 780 193.9822 655.2695 2840.3644 0.0000 -200487.0646 21560.4870 80.1456 0.0000 0.0000 -175156.8159 0.0000 -175156.8159 -175156.8159 0.0000 16215.3769 -4961.9400 534946.2959 16215.3769 -4961.9400
ENERGY: 800 175.0451 672.0704 2834.5183 0.0000 -200772.1014 21666.3473 83.3280 0.0000 0.0000 -175340.7922 0.0000 -175340.7922 -175340.7922 0.0000 16272.9928 -4948.2671 534946.2959 16272.9928 -4948.2671
TCL: Setting parameter constraintScaling to 0.0390625
TCL: Minimizing for 100 steps
ETITLE: TS BOND ANGLE DIHED IMPRP ELECT VDW BOUNDARY MISC KINETIC TOTAL TEMP POTENTIAL TOTAL3 TEMPAVG PRESSURE GPRESSURE VOLUME PRESSAVG GPRESSAVG
ENERGY: 800 175.0451 672.0704 2834.5183 0.0000 -200772.1014 21666.3473 41.6640 0.0000 0.0000 -175382.4562 0.0000 -175382.4562 -175382.4562 0.0000 16312.1459 -27161.3452 534946.2959 16312.1459 -27161.3452
ENERGY: 820 156.1034 658.0981 2837.9717 0.0000 -200944.1573 21722.7809 42.6198 0.0000 0.0000 -175526.5834 0.0000 -175526.5834 -175526.5834 0.0000 16351.0799 -4897.9345 534946.2959 16351.0799 -4897.9345
ENERGY: 840 178.2138 646.7847 2832.8990 0.0000 -201213.6985 21835.0471 44.3166 0.0000 0.0000 -175676.4372 0.0000 -175676.4372 -175676.4372 0.0000 16327.1724 -4910.7381 534946.2959 16327.1724 -4910.7381
ENERGY: 860 224.9721 663.6303 2830.7211 0.0000 -201547.8898 21960.9076 46.4453 0.0000 0.0000 -175821.2136 0.0000 -175821.2136 -175821.2136 0.0000 16408.9058 -4892.4686 534946.2959 16408.9058 -4892.4686
ENERGY: 880 170.3031 669.2770 2838.0432 0.0000 -201850.8112 22076.4326 47.2063 0.0000 0.0000 -176049.5490 0.0000 -176049.5490 -176049.5490 0.0000 16484.7540 -4859.6869 534946.2959 16484.7540 -4859.6869
ENERGY: 900 170.1402 667.1691 2821.7812 0.0000 -203039.4868 22597.0340 52.8796 0.0000 0.0000 -176730.4829 0.0000 -176730.4829 -176730.4829 0.0000 16760.6514 -4715.3507 534946.2959 16760.6514 -4715.3507
TCL: Setting parameter constraintScaling to 0.01953125
TCL: Minimizing for 100 steps
ETITLE: TS BOND ANGLE DIHED IMPRP ELECT VDW BOUNDARY MISC KINETIC TOTAL TEMP POTENTIAL TOTAL3 TEMPAVG PRESSURE GPRESSURE VOLUME PRESSAVG GPRESSAVG
ENERGY: 900 170.1402 667.1691 2821.7812 0.0000 -203039.4868 22597.0340 26.4398 0.0000 0.0000 -176756.9227 0.0000 -176756.9227 -176756.9227 0.0000 16783.4471 -27238.2582 534946.2959 16783.4471 -27238.2582
ENERGY: 920 167.0677 655.7894 2822.3636 0.0000 -203217.6501 22650.9137 27.2887 0.0000 0.0000 -176894.2270 0.0000 -176894.2270 -176894.2270 0.0000 16801.7869 -4701.6681 534946.2959 16801.7869 -4701.6681
ENERGY: 940 172.9310 671.4185 2818.9093 0.0000 -203692.9648 22863.5398 29.1546 0.0000 0.0000 -177137.0116 0.0000 -177137.0116 -177137.0116 0.0000 16883.8626 -4671.1379 534946.2959 16883.8626 -4671.1379
ENERGY: 960 163.0318 658.9275 2822.9912 0.0000 -203874.0547 22920.9489 28.9606 0.0000 0.0000 -177279.1947 0.0000 -177279.1947 -177279.1947 0.0000 16943.2455 -4641.0941 534946.2959 16943.2455 -4641.0941
ENERGY: 980 187.7349 673.7961 2819.9399 0.0000 -204587.4160 23260.9506 30.6202 0.0000 0.0000 -177614.3742 0.0000 -177614.3742 -177614.3742 0.0000 17130.7621 -4532.6295 534946.2959 17130.7621 -4532.6295
ENERGY: 1000 160.1518 658.9166 2813.1388 0.0000 -205113.0738 23501.8695 32.4528 0.0000 0.0000 -177946.5444 0.0000 -177946.5444 -177946.5444 0.0000 17268.5654 -4475.4349 534946.2959 17268.5654 -4475.4349
TCL: Setting parameter constraintScaling to 0
TCL: Minimizing for 5000 steps
ETITLE: TS BOND ANGLE DIHED IMPRP ELECT VDW BOUNDARY MISC KINETIC TOTAL TEMP POTENTIAL TOTAL3 TEMPAVG PRESSURE GPRESSURE VOLUME PRESSAVG GPRESSAVG
ENERGY: 1000 160.1518 658.9166 2813.1388 0.0000 -205113.0738 23501.8695 0.0000 0.0000 0.0000 -177978.9971 0.0000 -177978.9971 -177978.9971 0.0000 17294.7891 -27226.9018 534946.2959 17294.7891 -27226.9018
ENERGY: 2000 183.3572 670.6059 2797.7567 0.0000 -215005.1097 27860.0078 0.0000 0.0000 0.0000 -183493.3821 0.0000 -183493.3821 -183493.3821 0.0000 19555.7857 -3283.0127 534946.2959 19555.7857 -3283.0127
ENERGY: 3000 167.5986 666.2004 2792.3976 0.0000 -217576.3980 28895.4564 0.0000 0.0000 0.0000 -185054.7450 0.0000 -185054.7450 -185054.7450 0.0000 20112.5113 -2965.6491 534946.2959 20112.5113 -2965.6491
ENERGY: 4000 172.1014 667.3906 2788.9424 0.0000 -218768.5851 29396.5893 0.0000 0.0000 0.0000 -185743.5613 0.0000 -185743.5613 -185743.5613 0.0000 20377.6180 -2819.3521 534946.2959 20377.6180 -2819.3521
ENERGY: 5000 168.4090 665.0180 2787.7292 0.0000 -219446.2374 29669.4022 0.0000 0.0000 0.0000 -186155.6791 0.0000 -186155.6791 -186155.6791 0.0000 20515.9603 -2744.4045 534946.2959 20515.9603 -2744.4045
ENERGY: 6000 166.5783 661.8392 2786.5019 0.0000 -219870.6897 29815.0129 0.0000 0.0000 0.0000 -186440.7575 0.0000 -186440.7575 -186440.7575 0.0000 20590.9145 -2715.0985 534946.2959 20590.9145 -2715.0985
