Info: SIMULATION PARAMETERS:
Info: TIMESTEP               1
Info: NUMBER OF STEPS        0
Info: STEPS PER CYCLE        10
Info: PERIODIC CELL BASIS 1  72.449 0 0
Info: PERIODIC CELL BASIS 2  0 93.247 0
Info: PERIODIC CELL BASIS 3  0 0 79.185
Info: PERIODIC CELL CENTER   -0.248 -0.156 -0.047
Info: WRAPPING WATERS AROUND PERIODIC BOUNDARIES ON OUTPUT.
Info: WRAPPING ALL CLUSTERS AROUND PERIODIC BOUNDARIES ON OUTPUT.
Info: FIRST LDB TIMESTEP     50
Info: LAST LDB TIMESTEP     -1
Info: HOM BACKGROUND SCALING 1
Info: PME BACKGROUND SCALING 1
Info: MIN ATOMS PER PATCH    40
Info: VELOCITY FILE          ../replicas/rep90/equilibration/eq1.vel
Info: CENTER OF MASS MOVING INITIALLY? NO
Info: DIELECTRIC             1
Info: EXCLUDE                SCALED ONE-FOUR
Info: 1-4 ELECTROSTATICS SCALED BY 0.833333
Info: MODIFIED 1-4 VDW PARAMETERS WILL BE USED
Info: DCD FILENAME           ../replicas/rep90/equilibration/eq2.dcd
Info: DCD FREQUENCY          5000
Info: DCD FIRST STEP         5000
Info: DCD FILE WILL CONTAIN UNIT CELL DATA
Info: XST FILENAME           ../replicas/rep90/equilibration/eq2.xst
Info: XST FREQUENCY          5000
Info: NO VELOCITY DCD OUTPUT
Info: NO FORCE DCD OUTPUT
Info: OUTPUT FILENAME        ../replicas/rep90/equilibration/eq2
Info: RESTART FILENAME       ../replicas/rep90/equilibration/eq2.restart
Info: RESTART FREQUENCY      5000
Info: BINARY RESTART FILES WILL BE USED
Info: SWITCHING ACTIVE
Info: SWITCHING ON           10
Info: SWITCHING OFF          12
Info: PAIRLIST DISTANCE      13.5
Info: PAIRLIST SHRINK RATE   0.01
Info: PAIRLIST GROW RATE     0.01
Info: PAIRLIST TRIGGER       0.3
Info: PAIRLISTS PER CYCLE    2
Info: PAIRLISTS ENABLED
Info: MARGIN                 0.48
Info: HYDROGEN GROUP CUTOFF  2.5
Info: PATCH DIMENSION        16.48
Info: ENERGY OUTPUT STEPS    500
Info: CROSSTERM ENERGY INCLUDED IN DIHEDRAL
Info: TIMING OUTPUT STEPS    5000
Info: PRESSURE OUTPUT STEPS  500
Info: HARMONIC CONSTRAINTS ACTIVE
Info: HARMONIC CONS EXP      2
Info: HARMONIC CONS SCALING  10
Info: LANGEVIN DYNAMICS ACTIVE
Info: LANGEVIN TEMPERATURE   300
Info: LANGEVIN USING BBK INTEGRATOR
Info: LANGEVIN DAMPING COEFFICIENT IS 5 INVERSE PS
Info: LANGEVIN DYNAMICS NOT APPLIED TO HYDROGENS
Info: BERENDSEN PRESSURE COUPLING ACTIVE
Info:     TARGET PRESSURE IS 1 BAR
Info:     COMPRESSIBILITY ESTIMATE IS 4.57e-05 BAR^(-1)
Info:     RELAXATION TIME IS 100 FS
Info:     APPLIED EVERY 2 STEPS
Info:     PRESSURE CONTROL IS GROUP-BASED
Info:       CELL FLUCTUATION IS ISOTROPIC
Info: PARTICLE MESH EWALD (PME) ACTIVE
Info: PME TOLERANCE               1e-06
Info: PME EWALD COEFFICIENT       0.257952
Info: PME INTERPOLATION ORDER     4
Info: PME GRID DIMENSIONS         80 96 80
Info: PME MAXIMUM GRID SPACING    1
Info: FULL ELECTROSTATIC EVALUATION FREQUENCY      2
Info: USING VERLET I (r-RESPA) MTS SCHEME.
Info: C1 SPLITTING OF LONG RANGE ELECTROSTATICS
Info: PLACING ATOMS IN PATCHES BY HYDROGEN GROUPS
Info: RIGID BONDS TO HYDROGEN : WATER
Info:         ERROR TOLERANCE : 1e-05
Info:          MAX ITERATIONS : 100
Info: RIGID WATER USING SETTLE ALGORITHM
Info: RANDOM NUMBER SEED     1503701746
Info: USE HYDROGEN BONDS?    NO
Info: Using AMBER format force field!
Info: AMBER PARM FILE        ../build/complex.top
Info: COORDINATE PDB         ../replicas/rep90/equilibration/eq1.coor
Info: Exclusions in PARM file will be ignored!
Info: SCNB (VDW SCALING)     2
Info: USING ARITHMETIC MEAN TO COMBINE L-J SIGMA PARAMETERS
Info: SUMMARY OF PARAMETERS:
Info: 71 BONDS
Info: 145 ANGLES
Info: 76 DIHEDRAL
Info: 0 IMPROPER
Info: 0 CROSSTERM
Info: 0 VDW
Info: 190 VDW_PAIRS
Info: 0 NBTHOLE_PAIRS
Info: STRUCTURE SUMMARY:
Info: 49394 ATOMS
Info: 49448 BONDS
Info: 8698 ANGLES
Info: 18780 DIHEDRALS
Info: 0 IMPROPERS
Info: 0 CROSSTERMS
Info: 0 EXCLUSIONS
Info: 2336 CONSTRAINTS
Info: 44667 RIGID BONDS
Info: 103515 DEGREES OF FREEDOM
Info: 17225 HYDROGEN GROUPS
Info: 4 ATOMS IN LARGEST HYDROGEN GROUP
Info: 17225 MIGRATION GROUPS
Info: 4 ATOMS IN LARGEST MIGRATION GROUP
Info: TOTAL MASS = 301478 amu
Info: TOTAL CHARGE = 1.00115e-05 e
Info: MASS DENSITY = 0.935846 g/cm^3
Info: ATOM DENSITY = 0.0923345 atoms/A^3
Info: ADDED 70656 IMPLICIT EXCLUSIONS
Info: NONBONDED TABLE R-SQUARED SPACING: 0.0625
Info: NONBONDED TABLE SIZE: 769 POINTS
Info: REMOVING COM VELOCITY 0.00781346 0.0115003 0.0208677
TCL: Running for 5000 steps
ETITLE: TS BOND ANGLE DIHED IMPRP ELECT VDW BOUNDARY MISC KINETIC TOTAL TEMP POTENTIAL TOTAL3 TEMPAVG PRESSURE GPRESSURE VOLUME PRESSAVG GPRESSAVG
ENERGY: 0 380.8719 1233.4761 2917.5279 0.0000 -212577.6201 29495.6758 0.0000 0.0000 10044.4125 -168505.6559 97.6589 -178550.0684 -168496.0272 97.6589 -2405.9751 -2505.9465 534946.2959 -2405.9751 -2505.9465
ENERGY: 1000 1241.3688 2014.4882 3108.6911 0.0000 -193187.5295 26233.1025 761.2182 0.0000 24275.6392 -135553.0215 236.0249 -159828.6607 -135524.7831 219.2851 -123.9266 -78.0750 522341.7962 -12.7644 -12.7569
ENERGY: 2000 1437.9747 2141.5669 3149.2221 0.0000 -184438.9041 23655.0012 800.8327 0.0000 27950.2300 -125304.0765 271.7518 -153254.3065 -125259.1878 264.9080 -73.8974 -18.9530 515082.1334 -29.2430 -28.9336
ENERGY: 3000 1522.4728 2227.1815 3139.5198 0.0000 -179001.5536 21494.5654 818.9637 0.0000 29864.2405 -119934.6098 290.3612 -149798.8503 -119890.6104 285.7067 -90.5535 -26.6919 510377.0958 -11.5432 -11.7466
ENERGY: 4000 1570.3416 2267.8908 3159.3833 0.0000 -176494.1045 20672.5913 820.2827 0.0000 30321.6612 -117681.9536 294.8086 -148003.6148 -117635.1715 294.6992 28.1696 28.9443 508301.8502 4.5951 5.1425
ENERGY: 5000 1562.3249 2319.8332 3164.0092 0.0000 -176053.8357 20430.5658 798.1963 0.0000 30783.6437 -116995.2625 299.3003 -147778.9062 -116948.9005 298.3180 -127.6398 -26.6894 504902.7933 -18.6106 -18.2127
TCL: Setting parameter constraintScaling to 5.0
TCL: Running for 5000 steps
ETITLE: TS BOND ANGLE DIHED IMPRP ELECT VDW BOUNDARY MISC KINETIC TOTAL TEMP POTENTIAL TOTAL3 TEMPAVG PRESSURE GPRESSURE VOLUME PRESSAVG GPRESSAVG
ENERGY: 5000 1562.3249 2319.8332 3164.0092 0.0000 -176053.8357 20430.5658 399.0982 0.0000 30781.6118 -117396.3926 299.2805 -148178.0044 -117353.4358 299.2805 -197.4457 -85.4078 504902.7933 -197.4457 -85.4078
ENERGY: 6000 1586.8772 2320.7633 3175.8527 0.0000 -175709.6389 20302.1525 631.0853 0.0000 30810.7168 -116882.1912 299.5635 -147692.9080 -116831.2313 299.6147 1.8933 -4.8422 503457.6613 -17.4323 -17.4028
ENERGY: 7000 1584.0305 2290.9465 3161.0571 0.0000 -175185.9133 19933.1221 632.9234 0.0000 30720.9719 -116862.8617 298.6909 -147583.8336 -116819.1893 299.6884 34.8793 66.4131 503448.1673 -1.2276 -1.4102
ENERGY: 8000 1639.6880 2299.2537 3152.8433 0.0000 -175821.1560 20309.2889 658.8603 0.0000 30718.4760 -117042.7459 298.6667 -147761.2219 -116986.5533 299.1585 -62.9189 -39.4143 501648.0723 -9.8462 -9.6080
ENERGY: 9000 1663.0168 2338.8280 3148.9085 0.0000 -175606.7092 20214.7961 638.1959 0.0000 30528.4059 -117074.5580 296.8187 -147602.9639 -117041.1425 299.5151 -154.3864 -39.8159 500217.5578 -13.0749 -12.4317
ENERGY: 10000 1574.1075 2325.9027 3145.5409 0.0000 -176095.4528 20577.3962 648.8610 0.0000 30897.2626 -116926.3820 300.4050 -147823.6445 -116884.2552 299.7432 -74.1075 -38.3459 499798.4477 -2.5215 -2.8558
TCL: Setting parameter constraintScaling to 2.5
TCL: Running for 5000 steps
ETITLE: TS BOND ANGLE DIHED IMPRP ELECT VDW BOUNDARY MISC KINETIC TOTAL TEMP POTENTIAL TOTAL3 TEMPAVG PRESSURE GPRESSURE VOLUME PRESSAVG GPRESSAVG
ENERGY: 10000 1574.1075 2325.9027 3145.5409 0.0000 -176095.4528 20577.3962 324.4305 0.0000 30895.2024 -117252.8726 300.3849 -148148.0750 -117207.1175 300.3849 36.3096 57.5304 499798.4477 36.3096 57.5304
ENERGY: 11000 1553.2723 2329.0410 3163.1749 0.0000 -175648.3721 20073.7543 512.7795 0.0000 31115.2391 -116901.1110 302.5243 -148016.3501 -116854.7049 298.4694 15.0169 23.6914 500621.7182 8.8937 9.2417
ENERGY: 12000 1605.6999 2386.4065 3164.1254 0.0000 -175299.2267 19934.7763 492.1206 0.0000 30562.7908 -117153.3071 297.1530 -147716.0979 -117111.5580 298.1139 -23.5940 58.7042 501182.9715 7.3678 7.8159
ENERGY: 13000 1613.4124 2314.8123 3138.2480 0.0000 -175874.1591 20290.4281 510.0963 0.0000 30782.7583 -117224.4038 299.2917 -148007.1621 -117181.0197 299.0771 -111.2312 -29.9251 501024.0704 9.7771 9.9220
ENERGY: 14000 1611.3170 2319.8426 3170.4637 0.0000 -175699.5577 20076.5871 517.0901 0.0000 30806.8738 -117197.3833 299.5261 -148004.2571 -117147.6580 299.0978 55.7744 65.5537 500880.3607 -2.5003 -1.7705
ENERGY: 15000 1662.8703 2377.3887 3151.6545 0.0000 -175754.1413 20196.9113 510.8888 0.0000 30785.4155 -117069.0121 299.3175 -147854.4277 -117031.1919 300.0529 -33.3938 12.1747 500817.4655 2.3433 3.1040
TCL: Setting parameter constraintScaling to 1.25
TCL: Running for 5000 steps
ETITLE: TS BOND ANGLE DIHED IMPRP ELECT VDW BOUNDARY MISC KINETIC TOTAL TEMP POTENTIAL TOTAL3 TEMPAVG PRESSURE GPRESSURE VOLUME PRESSAVG GPRESSAVG
ENERGY: 15000 1662.8703 2377.3887 3151.6545 0.0000 -175754.1413 20196.9113 255.4444 0.0000 30783.3693 -117326.5028 299.2976 -148109.8721 -117283.7143 299.2976 -88.3790 -34.6690 500817.4655 -88.3790 -34.6690
ENERGY: 16000 1675.9770 2377.4691 3205.8942 0.0000 -176162.2058 20459.7894 385.2320 0.0000 30969.9554 -117087.8886 301.1117 -148057.8441 -117040.8790 300.1171 -126.0532 1.5191 500602.1705 10.8746 10.5603
ENERGY: 17000 1616.2253 2437.8056 3182.7461 0.0000 -176048.3019 20307.0419 390.8020 0.0000 30908.5815 -117205.0994 300.5150 -148113.6809 -117154.9078 299.7279 64.2248 79.0877 499931.7029 -2.4698 -2.7608
ENERGY: 18000 1632.2069 2388.3080 3179.9379 0.0000 -175813.6691 20176.7832 418.8431 0.0000 30809.2132 -117208.3767 299.5489 -148017.5900 -117166.1852 299.2680 -66.7806 -37.3872 500188.7650 0.4288 0.5528
ENERGY: 19000 1605.5368 2369.4060 3167.6695 0.0000 -176113.9546 20257.6138 395.3777 0.0000 30822.2532 -117496.0976 299.6757 -148318.3508 -117452.0570 298.6642 -23.2222 20.3173 500831.9628 5.1112 4.7637
ENERGY: 20000 1622.5989 2366.9231 3183.2430 0.0000 -175686.9309 19887.1568 392.8527 0.0000 30789.7277 -117444.4288 299.3594 -148234.1564 -117402.0075 299.1484 -34.8462 50.6807 499131.0022 -8.7465 -9.1469
TCL: Setting parameter constraintScaling to 0.625
TCL: Running for 5000 steps
ETITLE: TS BOND ANGLE DIHED IMPRP ELECT VDW BOUNDARY MISC KINETIC TOTAL TEMP POTENTIAL TOTAL3 TEMPAVG PRESSURE GPRESSURE VOLUME PRESSAVG GPRESSAVG
ENERGY: 20000 1622.5989 2366.9231 3183.2430 0.0000 -175686.9309 19887.1568 196.4263 0.0000 30787.6993 -117642.8834 299.3397 -148430.5828 -117599.6192 299.3397 -111.8984 -30.8647 499131.0022 -111.8984 -30.8647
ENERGY: 21000 1661.1511 2416.4811 3215.0725 0.0000 -176220.8012 20437.3997 310.3991 0.0000 30786.2963 -117394.0013 299.3261 -148180.2976 -117350.4419 299.1083 -204.1828 -94.6232 499187.3618 10.3996 10.6524
ENERGY: 22000 1619.6761 2408.8762 3204.1528 0.0000 -175920.4434 19996.6628 298.7470 0.0000 30583.0566 -117809.2719 297.3500 -148392.3285 -117759.0190 298.5536 -55.8594 -21.8165 498389.7737 -3.1691 -2.4879
ENERGY: 23000 1654.7708 2428.0278 3198.5808 0.0000 -176065.9934 20152.6390 313.0633 0.0000 30752.3734 -117566.5384 298.9962 -148318.9117 -117531.1721 299.2675 -70.2135 -10.5225 497067.3036 2.5329 2.4441
ENERGY: 24000 1572.8767 2318.0030 3203.6680 0.0000 -176233.2069 20367.4627 321.1007 0.0000 30813.8482 -117636.2477 299.5939 -148450.0958 -117586.9806 299.0839 25.3766 50.3347 496654.2385 -6.9192 -6.8048
ENERGY: 25000 1711.3275 2425.8801 3184.9668 0.0000 -176035.0918 20120.5130 335.1627 0.0000 30690.5706 -117566.6710 298.3954 -148257.2416 -117527.2833 298.4137 -195.0014 -112.4685 497146.8814 -3.1886 -3.3976
TCL: Setting parameter constraintScaling to 0.3125
TCL: Running for 5000 steps
ETITLE: TS BOND ANGLE DIHED IMPRP ELECT VDW BOUNDARY MISC KINETIC TOTAL TEMP POTENTIAL TOTAL3 TEMPAVG PRESSURE GPRESSURE VOLUME PRESSAVG GPRESSAVG
ENERGY: 25000 1711.3275 2425.8801 3184.9668 0.0000 -176035.0918 20120.5130 167.5813 0.0000 30688.5425 -117736.2805 298.3756 -148424.8230 -117695.3452 298.3756 -172.6730 -89.6892 497146.8814 -172.6730 -89.6892
ENERGY: 26000 1582.5169 2466.5153 3189.7251 0.0000 -175710.1454 19996.4245 245.0083 0.0000 30910.8701 -117319.0851 300.5373 -148229.9552 -117274.9112 299.6876 -16.4009 -30.4073 497295.6283 7.0628 7.0694
ENERGY: 27000 1624.9177 2385.4809 3203.5341 0.0000 -175975.1140 20200.0498 262.4184 0.0000 30723.8349 -117574.8781 298.7188 -148298.7129 -117519.7107 299.1035 -5.0793 61.1265 499179.4649 8.4276 8.5230
ENERGY: 28000 1693.2965 2363.9969 3239.2328 0.0000 -176167.9567 20282.1056 256.8201 0.0000 30585.8455 -117746.6594 297.3771 -148332.5049 -117691.8824 298.7406 35.6339 -19.9945 498036.1452 2.5899 2.4348
ENERGY: 29000 1654.8056 2413.0199 3226.7747 0.0000 -176182.2614 20097.8116 248.5547 0.0000 30974.3378 -117566.9572 301.1543 -148541.2950 -117520.5909 298.7602 -18.2827 7.4485 496932.6565 7.0373 6.5882
ENERGY: 30000 1617.5889 2433.6050 3218.0268 0.0000 -176309.3581 20122.8929 254.7656 0.0000 30811.8036 -117850.6752 299.5741 -148662.4788 -117794.0218 299.0545 11.4469 -79.6420 496060.7204 2.2418 2.5050
TCL: Setting parameter constraintScaling to 0.15625
TCL: Running for 5000 steps
ETITLE: TS BOND ANGLE DIHED IMPRP ELECT VDW BOUNDARY MISC KINETIC TOTAL TEMP POTENTIAL TOTAL3 TEMPAVG PRESSURE GPRESSURE VOLUME PRESSAVG GPRESSAVG
ENERGY: 30000 1617.5889 2433.6050 3218.0268 0.0000 -176309.3581 20122.8929 127.3828 0.0000 30809.7725 -117980.0891 299.5543 -148789.8616 -117937.4040 299.5543 -21.6686 -114.8045 496060.7204 -21.6686 -114.8045
ENERGY: 31000 1576.3879 2382.7677 3174.1605 0.0000 -175774.7827 19857.0078 180.3907 0.0000 30945.0517 -117659.0164 300.8696 -148604.0681 -117606.1604 299.4295 -49.6820 -13.8758 497360.6386 -0.7984 -0.5883
ENERGY: 32000 1673.3169 2408.0267 3252.3044 0.0000 -175655.1285 20013.4645 187.0190 0.0000 30813.6300 -117307.3670 299.5918 -148120.9970 -117265.9044 299.8096 0.6115 30.8558 496767.2497 -0.0833 -0.0534
ENERGY: 33000 1631.3665 2488.1829 3198.4161 0.0000 -175735.9224 19942.6303 198.7749 0.0000 30859.2507 -117417.3010 300.0354 -148276.5517 -117363.8280 299.8627 -20.0626 -5.5040 497586.3424 5.0327 5.2997
ENERGY: 34000 1597.6586 2417.4901 3222.7869 0.0000 -176162.0930 20123.4749 186.5957 0.0000 30672.6659 -117941.4209 298.2213 -148614.0868 -117906.3390 299.4120 102.1366 -33.9384 496208.8412 -18.9039 -18.8039
ENERGY: 35000 1633.4655 2405.1028 3226.3043 0.0000 -175766.4686 19971.3221 195.3995 0.0000 30997.4750 -117337.3994 301.3793 -148334.8744 -117293.3032 299.4008 33.6721 -7.2977 496995.3271 10.5441 9.9540
TCL: Setting parameter constraintScaling to 0.078125
TCL: Running for 5000 steps
ETITLE: TS BOND ANGLE DIHED IMPRP ELECT VDW BOUNDARY MISC KINETIC TOTAL TEMP POTENTIAL TOTAL3 TEMPAVG PRESSURE GPRESSURE VOLUME PRESSAVG GPRESSAVG
ENERGY: 35000 1633.4655 2405.1028 3226.3043 0.0000 -175766.4686 19971.3221 97.6998 0.0000 30995.4466 -117437.1276 301.3596 -148432.5742 -117397.5998 301.3596 23.7973 -19.9245 496995.3271 23.7973 -19.9245
ENERGY: 36000 1682.5112 2453.7542 3202.5504 0.0000 -175519.5358 19881.5575 154.0761 0.0000 30865.7517 -117279.3346 300.0986 -148145.0863 -117227.8597 300.1839 44.8704 -19.8012 497232.7555 17.4236 17.5833
ENERGY: 37000 1615.6580 2419.0145 3190.4297 0.0000 -175695.8627 20001.5955 156.9710 0.0000 31137.5315 -117174.6625 302.7410 -148312.1940 -117129.0394 300.4017 -119.2642 -36.4007 497723.7121 -2.8044 -2.8238
ENERGY: 38000 1635.0504 2381.8895 3204.6664 0.0000 -175838.0262 20049.4906 162.5594 0.0000 30938.2145 -117466.1554 300.8031 -148404.3699 -117424.9321 300.0512 6.9637 21.5067 498673.0726 1.8527 0.9452
ENERGY: 39000 1625.1995 2411.8275 3245.3900 0.0000 -175876.4027 20070.3473 164.4261 0.0000 30822.4242 -117536.7879 299.6773 -148359.2122 -117490.1460 300.0108 -52.1810 0.9694 497681.0522 1.3034 1.0922
ENERGY: 40000 1614.6583 2444.0356 3194.7145 0.0000 -175962.0535 19991.5063 166.8756 0.0000 30623.0362 -117927.2269 297.7387 -148550.2631 -117888.7812 298.2056 -39.9711 -8.9111 496185.7637 7.8467 7.7243
TCL: Setting parameter constraintScaling to 0.0390625
TCL: Running for 5000 steps
ETITLE: TS BOND ANGLE DIHED IMPRP ELECT VDW BOUNDARY MISC KINETIC TOTAL TEMP POTENTIAL TOTAL3 TEMPAVG PRESSURE GPRESSURE VOLUME PRESSAVG GPRESSAVG
ENERGY: 40000 1614.6583 2444.0356 3194.7145 0.0000 -175962.0535 19991.5063 83.4378 0.0000 30620.9939 -118012.7070 297.7189 -148633.7009 -117968.1819 297.7189 -53.6719 -32.3852 496185.7637 -53.6719 -32.3852
ENERGY: 41000 1641.3340 2402.2361 3180.3939 0.0000 -176173.3960 19969.2852 108.2236 0.0000 30728.5153 -118143.4079 298.7643 -148871.9232 -118102.0306 299.1369 -41.6902 18.7451 494908.3634 1.2220 1.1032
ENERGY: 42000 1686.8724 2426.0003 3215.9789 0.0000 -176426.6012 20219.1047 118.9889 0.0000 30643.8704 -118115.7856 297.9413 -148759.6560 -118067.6304 299.0984 -68.7769 -77.4424 494873.3462 3.7657 3.3486
ENERGY: 43000 1659.8293 2425.9251 3189.2319 0.0000 -175780.5850 19996.1782 125.5163 0.0000 30686.7005 -117697.2037 298.3577 -148383.9042 -117654.9081 299.7130 -23.1063 43.5405 495787.5563 -1.8492 -1.4277
ENERGY: 44000 1668.5382 2413.7690 3191.3543 0.0000 -176054.7124 19981.4490 140.4715 0.0000 30850.6792 -117808.4513 299.9520 -148659.1304 -117755.6642 299.2237 -85.1137 -25.6053 495595.6909 0.0505 0.2703
ENERGY: 45000 1637.6342 2416.7274 3196.6969 0.0000 -176286.4375 20137.7186 141.0463 0.0000 30724.3866 -118032.2274 298.7241 -148756.6140 -117996.2217 298.5089 -145.2394 -118.2266 496071.0853 -2.3600 -2.5380
TCL: Setting parameter constraintScaling to 0.01953125
TCL: Running for 5000 steps
ETITLE: TS BOND ANGLE DIHED IMPRP ELECT VDW BOUNDARY MISC KINETIC TOTAL TEMP POTENTIAL TOTAL3 TEMPAVG PRESSURE GPRESSURE VOLUME PRESSAVG GPRESSAVG
ENERGY: 45000 1637.6342 2416.7274 3196.6969 0.0000 -176286.4375 20137.7186 70.5232 0.0000 30722.3695 -118104.7677 298.7045 -148827.1372 -118060.4818 298.7045 -148.2916 -121.6641 496071.0853 -148.2916 -121.6641
ENERGY: 46000 1634.0907 2434.2274 3221.3570 0.0000 -175795.7241 20105.2944 85.1948 0.0000 30653.6574 -117661.9024 298.0365 -148315.5598 -117624.9521 298.9416 56.0983 56.5821 497833.0704 13.1786 13.0177
ENERGY: 47000 1654.9322 2350.6540 3221.4235 0.0000 -175632.0360 19816.5212 81.9484 0.0000 30778.2825 -117728.2741 299.2482 -148506.5566 -117677.6827 298.2026 -49.9987 19.8493 496507.8411 3.8823 4.0584
ENERGY: 48000 1658.3942 2404.2094 3211.5030 0.0000 -175742.6184 20036.5805 90.5899 0.0000 30715.0318 -117626.3097 298.6332 -148341.3414 -117583.0983 299.2879 0.6198 14.4523 497498.5603 5.3505 5.1901
ENERGY: 49000 1655.9789 2416.6732 3235.4620 0.0000 -176045.1171 20033.3784 95.1356 0.0000 30938.4524 -117670.0365 300.8054 -148608.4889 -117623.2253 299.9689 -35.6131 -24.2418 498320.8179 10.2972 10.4149
ENERGY: 50000 1648.4854 2358.7883 3185.5306 0.0000 -175854.2910 20013.7505 96.9044 0.0000 30837.5523 -117713.2794 299.8244 -148550.8317 -117666.0444 299.5864 18.1482 15.6295 498227.8964 6.4332 5.9753
TCL: Setting parameter constraintScaling to 0
TCL: Running for 5000 steps
ETITLE: TS BOND ANGLE DIHED IMPRP ELECT VDW BOUNDARY MISC KINETIC TOTAL TEMP POTENTIAL TOTAL3 TEMPAVG PRESSURE GPRESSURE VOLUME PRESSAVG GPRESSAVG
ENERGY: 50000 1648.4854 2358.7883 3185.5306 0.0000 -175854.2910 20013.7505 0.0000 0.0000 30835.4838 -117812.2524 299.8043 -148647.7361 -117765.4902 299.8043 26.7679 19.8857 498227.8964 26.7679 19.8857
ENERGY: 51000 1603.7767 2386.0756 3185.8228 0.0000 -175820.1813 19992.6934 0.0000 0.0000 31010.2748 -117641.5380 301.5037 -148651.8128 -117596.5536 300.3874 -5.6296 -37.0722 496943.4347 6.4194 6.0178
ENERGY: 52000 1621.2591 2369.5987 3197.7966 0.0000 -176114.4771 20101.7573 0.0000 0.0000 30591.7296 -118232.3359 297.4344 -148824.0654 -118191.6741 299.3286 -119.3861 -72.1648 495717.4919 -8.7177 -8.5242
ENERGY: 53000 1611.9424 2396.9576 3234.9513 0.0000 -176288.4706 19957.5780 0.0000 0.0000 30749.0925 -118337.9488 298.9643 -149087.0413 -118291.4955 297.7036 -60.1112 -36.7794 495255.7268 -2.4291 -2.3871
ENERGY: 54000 1606.5905 2438.2864 3194.7484 0.0000 -176303.7869 20160.3743 0.0000 0.0000 30856.6983 -118047.0890 300.0106 -148903.7873 -117999.5058 298.7506 89.0179 77.0837 497147.2557 10.7275 10.6767
ENERGY: 55000 1605.7936 2362.9917 3202.4468 0.0000 -176274.4840 20239.4968 0.0000 0.0000 30923.1193 -117940.6358 300.6564 -148863.7551 -117897.4069 299.7836 27.4615 -10.8487 496138.3093 5.4105 4.6669
