Info: SIMULATION PARAMETERS:
Info: TIMESTEP               1
Info: NUMBER OF STEPS        0
Info: STEPS PER CYCLE        10
Info: PERIODIC CELL BASIS 1  72.449 0 0
Info: PERIODIC CELL BASIS 2  0 93.247 0
Info: PERIODIC CELL BASIS 3  0 0 79.185
Info: PERIODIC CELL CENTER   -0.248 -0.156 -0.047
Info: WRAPPING WATERS AROUND PERIODIC BOUNDARIES ON OUTPUT.
Info: WRAPPING ALL CLUSTERS AROUND PERIODIC BOUNDARIES ON OUTPUT.
Info: FIRST LDB TIMESTEP     50
Info: LAST LDB TIMESTEP     -1
Info: HOM BACKGROUND SCALING 1
Info: PME BACKGROUND SCALING 1
Info: MIN ATOMS PER PATCH    40
Info: VELOCITY FILE          ../replicas/rep14/equilibration/eq1.vel
Info: CENTER OF MASS MOVING INITIALLY? NO
Info: DIELECTRIC             1
Info: EXCLUDE                SCALED ONE-FOUR
Info: 1-4 ELECTROSTATICS SCALED BY 0.833333
Info: MODIFIED 1-4 VDW PARAMETERS WILL BE USED
Info: DCD FILENAME           ../replicas/rep14/equilibration/eq2.dcd
Info: DCD FREQUENCY          5000
Info: DCD FIRST STEP         5000
Info: DCD FILE WILL CONTAIN UNIT CELL DATA
Info: XST FILENAME           ../replicas/rep14/equilibration/eq2.xst
Info: XST FREQUENCY          5000
Info: NO VELOCITY DCD OUTPUT
Info: NO FORCE DCD OUTPUT
Info: OUTPUT FILENAME        ../replicas/rep14/equilibration/eq2
Info: RESTART FILENAME       ../replicas/rep14/equilibration/eq2.restart
Info: RESTART FREQUENCY      5000
Info: BINARY RESTART FILES WILL BE USED
Info: SWITCHING ACTIVE
Info: SWITCHING ON           10
Info: SWITCHING OFF          12
Info: PAIRLIST DISTANCE      13.5
Info: PAIRLIST SHRINK RATE   0.01
Info: PAIRLIST GROW RATE     0.01
Info: PAIRLIST TRIGGER       0.3
Info: PAIRLISTS PER CYCLE    2
Info: PAIRLISTS ENABLED
Info: MARGIN                 0.48
Info: HYDROGEN GROUP CUTOFF  2.5
Info: PATCH DIMENSION        16.48
Info: ENERGY OUTPUT STEPS    500
Info: CROSSTERM ENERGY INCLUDED IN DIHEDRAL
Info: TIMING OUTPUT STEPS    5000
Info: PRESSURE OUTPUT STEPS  500
Info: HARMONIC CONSTRAINTS ACTIVE
Info: HARMONIC CONS EXP      2
Info: HARMONIC CONS SCALING  10
Info: LANGEVIN DYNAMICS ACTIVE
Info: LANGEVIN TEMPERATURE   300
Info: LANGEVIN USING BBK INTEGRATOR
Info: LANGEVIN DAMPING COEFFICIENT IS 5 INVERSE PS
Info: LANGEVIN DYNAMICS NOT APPLIED TO HYDROGENS
Info: BERENDSEN PRESSURE COUPLING ACTIVE
Info:     TARGET PRESSURE IS 1 BAR
Info:     COMPRESSIBILITY ESTIMATE IS 4.57e-05 BAR^(-1)
Info:     RELAXATION TIME IS 100 FS
Info:     APPLIED EVERY 2 STEPS
Info:     PRESSURE CONTROL IS GROUP-BASED
Info:       CELL FLUCTUATION IS ISOTROPIC
Info: PARTICLE MESH EWALD (PME) ACTIVE
Info: PME TOLERANCE               1e-06
Info: PME EWALD COEFFICIENT       0.257952
Info: PME INTERPOLATION ORDER     4
Info: PME GRID DIMENSIONS         80 96 80
Info: PME MAXIMUM GRID SPACING    1
Info: FULL ELECTROSTATIC EVALUATION FREQUENCY      2
Info: USING VERLET I (r-RESPA) MTS SCHEME.
Info: C1 SPLITTING OF LONG RANGE ELECTROSTATICS
Info: PLACING ATOMS IN PATCHES BY HYDROGEN GROUPS
Info: RIGID BONDS TO HYDROGEN : WATER
Info:         ERROR TOLERANCE : 1e-05
Info:          MAX ITERATIONS : 100
Info: RIGID WATER USING SETTLE ALGORITHM
Info: RANDOM NUMBER SEED     1503700982
Info: USE HYDROGEN BONDS?    NO
Info: Using AMBER format force field!
Info: AMBER PARM FILE        ../build/complex.top
Info: COORDINATE PDB         ../replicas/rep14/equilibration/eq1.coor
Info: Exclusions in PARM file will be ignored!
Info: SCNB (VDW SCALING)     2
Info: USING ARITHMETIC MEAN TO COMBINE L-J SIGMA PARAMETERS
Info: SUMMARY OF PARAMETERS:
Info: 71 BONDS
Info: 145 ANGLES
Info: 76 DIHEDRAL
Info: 0 IMPROPER
Info: 0 CROSSTERM
Info: 0 VDW
Info: 190 VDW_PAIRS
Info: 0 NBTHOLE_PAIRS
Info: STRUCTURE SUMMARY:
Info: 49394 ATOMS
Info: 49448 BONDS
Info: 8698 ANGLES
Info: 18780 DIHEDRALS
Info: 0 IMPROPERS
Info: 0 CROSSTERMS
Info: 0 EXCLUSIONS
Info: 2336 CONSTRAINTS
Info: 44667 RIGID BONDS
Info: 103515 DEGREES OF FREEDOM
Info: 17225 HYDROGEN GROUPS
Info: 4 ATOMS IN LARGEST HYDROGEN GROUP
Info: 17225 MIGRATION GROUPS
Info: 4 ATOMS IN LARGEST MIGRATION GROUP
Info: TOTAL MASS = 301478 amu
Info: TOTAL CHARGE = 1.00115e-05 e
Info: MASS DENSITY = 0.935846 g/cm^3
Info: ATOM DENSITY = 0.0923345 atoms/A^3
Info: ADDED 70656 IMPLICIT EXCLUSIONS
Info: NONBONDED TABLE R-SQUARED SPACING: 0.0625
Info: NONBONDED TABLE SIZE: 769 POINTS
Info: REMOVING COM VELOCITY -0.00427463 -0.0120435 0.00406981
TCL: Running for 5000 steps
ETITLE: TS BOND ANGLE DIHED IMPRP ELECT VDW BOUNDARY MISC KINETIC TOTAL TEMP POTENTIAL TOTAL3 TEMPAVG PRESSURE GPRESSURE VOLUME PRESSAVG GPRESSAVG
ENERGY: 0 408.7328 1207.8071 2923.9744 0.0000 -212601.2700 29502.5514 0.0000 0.0000 10046.3142 -168511.8902 97.6773 -178558.2044 -168502.1043 97.6773 -2427.1281 -2527.9269 534946.2959 -2427.1281 -2527.9269
ENERGY: 1000 1264.5414 1968.1822 3119.7729 0.0000 -193527.1413 26508.0486 785.1597 0.0000 24114.6045 -135766.8319 234.4592 -159881.4364 -135746.6393 219.0444 -12.3043 12.5074 522323.8033 -15.7604 -16.5848
ENERGY: 2000 1410.7876 2158.2376 3122.5283 0.0000 -183916.4623 23170.2162 805.0549 0.0000 27921.8482 -125327.7895 271.4759 -153249.6377 -125282.0512 263.7686 -4.3300 -19.4245 516966.6960 -14.5304 -14.5166
ENERGY: 3000 1479.6249 2235.3164 3134.8490 0.0000 -179180.1382 21633.1194 759.7522 0.0000 29442.5401 -120494.9362 286.2611 -149937.4763 -120464.3068 283.8425 -186.7216 -68.8047 511696.0893 -15.6173 -15.1296
ENERGY: 4000 1528.2976 2284.6096 3131.3011 0.0000 -176325.1817 20409.9059 792.7434 0.0000 30410.9680 -117767.3560 295.6769 -148178.3240 -117720.1115 294.3173 38.9144 -5.2306 509188.4358 -6.8011 -6.7649
ENERGY: 5000 1566.4058 2291.6615 3146.0785 0.0000 -175654.0251 20300.9156 817.9804 0.0000 30519.8273 -117011.1559 296.7353 -147530.9833 -116974.4151 296.8027 20.3189 18.4718 506237.5941 -6.1323 -6.0910
TCL: Setting parameter constraintScaling to 5.0
TCL: Running for 5000 steps
ETITLE: TS BOND ANGLE DIHED IMPRP ELECT VDW BOUNDARY MISC KINETIC TOTAL TEMP POTENTIAL TOTAL3 TEMPAVG PRESSURE GPRESSURE VOLUME PRESSAVG GPRESSAVG
ENERGY: 5000 1566.4058 2291.6615 3146.0785 0.0000 -175654.0251 20300.9156 408.9902 0.0000 30517.7723 -117422.2011 296.7153 -147939.9734 -117377.2946 296.7153 -54.5381 -55.4923 506237.5941 -54.5381 -55.4923
ENERGY: 6000 1595.4931 2309.5115 3171.6277 0.0000 -175349.4041 20144.3824 665.2816 0.0000 30712.3546 -116750.7532 298.6072 -147463.1078 -116700.4869 298.1200 -52.4607 19.8823 505185.5612 -2.5145 -2.1274
ENERGY: 7000 1616.4965 2323.8622 3139.5400 0.0000 -175558.5123 20137.7118 660.2357 0.0000 30676.9095 -117003.7567 298.2625 -147680.6661 -116970.5414 299.1748 38.6418 7.4254 502666.3658 -4.8911 -4.9802
ENERGY: 8000 1667.9136 2348.0230 3142.6483 0.0000 -175489.2082 20313.8587 653.2560 0.0000 30714.5095 -116648.9990 298.6281 -147363.5085 -116607.9445 299.6720 -106.4988 -35.6070 503370.6279 6.9004 6.8724
ENERGY: 9000 1614.4360 2414.0774 3162.6498 0.0000 -175264.9521 20122.0271 616.3457 0.0000 30919.9935 -116415.4226 300.6260 -147335.4161 -116374.1047 300.5574 -71.6060 -21.8038 502982.9177 6.4431 7.1841
ENERGY: 10000 1592.6037 2360.8344 3173.7541 0.0000 -175355.4597 19981.2755 683.9550 0.0000 30677.9025 -116885.1346 298.2722 -147563.0371 -116822.1772 300.6534 -19.0932 -0.8824 502557.5219 6.2972 6.3174
TCL: Setting parameter constraintScaling to 2.5
TCL: Running for 5000 steps
ETITLE: TS BOND ANGLE DIHED IMPRP ELECT VDW BOUNDARY MISC KINETIC TOTAL TEMP POTENTIAL TOTAL3 TEMPAVG PRESSURE GPRESSURE VOLUME PRESSAVG GPRESSAVG
ENERGY: 10000 1592.6037 2360.8344 3173.7541 0.0000 -175355.4597 19981.2755 341.9775 0.0000 30675.8467 -117229.1679 298.2522 -147905.0146 -117185.4475 298.2522 -160.8292 -149.2506 502557.5219 -160.8292 -149.2506
ENERGY: 11000 1630.9283 2312.2169 3180.2826 0.0000 -175477.3379 20140.8706 525.8932 0.0000 30732.0094 -116955.1369 298.7983 -147687.1463 -116913.7267 298.8718 -77.1063 -23.7960 502264.6277 8.1645 8.2378
ENERGY: 12000 1607.8873 2372.9823 3143.5774 0.0000 -175471.6649 20067.1221 505.4006 0.0000 30895.8009 -116878.8942 300.3907 -147774.6951 -116834.4572 299.7378 -64.1122 -1.1038 499602.6925 -8.1725 -8.2306
ENERGY: 13000 1597.5533 2346.0759 3165.3425 0.0000 -175594.5772 20068.2933 519.0335 0.0000 30602.7268 -117295.5518 297.5413 -147898.2787 -117238.1798 299.2232 -31.0329 9.4013 499904.9619 -1.5317 -1.8408
ENERGY: 14000 1634.8858 2371.4143 3170.8099 0.0000 -175705.7513 20044.9116 505.6144 0.0000 30948.4246 -117029.6907 300.9024 -147978.1153 -116966.6899 300.2276 -70.2594 34.6810 499036.9886 -16.4921 -16.4459
ENERGY: 15000 1639.3088 2325.3719 3177.0953 0.0000 -175331.7943 19748.4119 495.9351 0.0000 30993.2988 -116952.3724 301.3387 -147945.6712 -116905.0577 300.8666 -89.0609 -56.3595 499750.6204 -0.3688 -0.1310
TCL: Setting parameter constraintScaling to 1.25
TCL: Running for 5000 steps
ETITLE: TS BOND ANGLE DIHED IMPRP ELECT VDW BOUNDARY MISC KINETIC TOTAL TEMP POTENTIAL TOTAL3 TEMPAVG PRESSURE GPRESSURE VOLUME PRESSAVG GPRESSAVG
ENERGY: 15000 1639.3088 2325.3719 3177.0953 0.0000 -175331.7943 19748.4119 247.9676 0.0000 30991.2571 -117202.3817 301.3188 -148193.6388 -117158.8094 301.3188 -167.8878 -134.7254 499750.6204 -167.8878 -134.7254
ENERGY: 16000 1673.5005 2379.1776 3168.2985 0.0000 -175336.8375 19715.5678 422.7306 0.0000 30942.5574 -117035.0051 300.8453 -147977.5624 -116997.9159 300.7825 -91.1679 -17.6841 499364.9455 0.0207 0.1271
ENERGY: 17000 1563.2146 2367.8374 3213.1215 0.0000 -175617.1184 19979.5107 378.3776 0.0000 30905.1883 -117209.8684 300.4820 -148115.0567 -117158.3718 299.4710 -65.4938 -46.9361 498940.5725 9.4272 9.5238
ENERGY: 18000 1667.7378 2289.5295 3146.6581 0.0000 -176072.6308 20326.0682 402.7454 0.0000 30583.3364 -117656.5553 297.3528 -148239.8917 -117613.8198 298.8974 -24.4371 35.5950 497820.9680 -9.1585 -8.4671
ENERGY: 19000 1597.5920 2375.5056 3197.1720 0.0000 -175661.9110 20011.4530 403.1959 0.0000 30809.8613 -117267.1312 299.5552 -148076.9925 -117235.4833 299.5705 -70.5768 -71.2301 498030.3100 -5.3189 -5.2723
ENERGY: 20000 1551.4073 2350.6494 3179.7795 0.0000 -175877.0174 20229.9453 395.9010 0.0000 30859.7056 -117309.6292 300.0398 -148169.3348 -117270.4275 298.9471 68.4194 68.4386 499739.9011 4.2312 4.6367
TCL: Setting parameter constraintScaling to 0.625
TCL: Running for 5000 steps
ETITLE: TS BOND ANGLE DIHED IMPRP ELECT VDW BOUNDARY MISC KINETIC TOTAL TEMP POTENTIAL TOTAL3 TEMPAVG PRESSURE GPRESSURE VOLUME PRESSAVG GPRESSAVG
ENERGY: 20000 1551.4073 2350.6494 3179.7795 0.0000 -175877.0174 20229.9453 197.9505 0.0000 30857.6431 -117509.6422 300.0198 -148367.2853 -117462.7931 300.0198 57.5276 53.9740 499739.9011 57.5276 53.9740
ENERGY: 21000 1633.3997 2407.9448 3156.7746 0.0000 -175723.5236 20006.7527 307.6162 0.0000 30832.0044 -117379.0312 299.7705 -148211.0356 -117342.8245 299.2910 -3.8578 92.9283 499000.3695 4.4941 4.0351
ENERGY: 22000 1584.2716 2330.9221 3154.7323 0.0000 -175855.6370 20071.3472 309.8787 0.0000 30854.6024 -117549.8827 299.9902 -148404.4851 -117511.6826 298.7785 -66.4372 -92.5916 499565.8451 11.0409 10.3168
ENERGY: 23000 1636.8240 2380.0984 3206.2993 0.0000 -175215.3342 19644.3568 314.7603 0.0000 30805.7963 -117227.1991 299.5157 -148032.9954 -117177.8563 299.8800 49.1174 19.5688 498846.2064 17.0913 16.2639
ENERGY: 24000 1634.3337 2359.6926 3237.0106 0.0000 -175912.5013 19952.8210 327.8079 0.0000 30783.5099 -117617.3257 299.2990 -148400.8356 -117568.1292 299.0297 -45.4252 27.2367 498014.2176 -5.7760 -5.5576
ENERGY: 25000 1642.1665 2412.4333 3183.9244 0.0000 -175391.1517 19906.2313 307.6010 0.0000 30597.1394 -117341.6557 297.4870 -147938.7951 -117303.3497 298.9351 -91.2587 -60.8594 497346.2231 -5.1663 -5.4753
TCL: Setting parameter constraintScaling to 0.3125
TCL: Running for 5000 steps
ETITLE: TS BOND ANGLE DIHED IMPRP ELECT VDW BOUNDARY MISC KINETIC TOTAL TEMP POTENTIAL TOTAL3 TEMPAVG PRESSURE GPRESSURE VOLUME PRESSAVG GPRESSAVG
ENERGY: 25000 1642.1665 2412.4333 3183.9244 0.0000 -175391.1516 19906.2313 153.8005 0.0000 30595.0951 -117497.5005 297.4671 -148092.5956 -117453.3879 297.4671 -100.3407 -80.3756 497346.2231 -100.3407 -80.3756
ENERGY: 26000 1655.3770 2405.1394 3225.0007 0.0000 -176142.5860 20207.9371 254.3066 0.0000 30866.4815 -117528.3438 300.1057 -148394.8253 -117472.3404 298.7851 7.7763 39.3728 496499.1479 -8.3509 -8.5465
ENERGY: 27000 1675.4811 2307.4805 3177.5179 0.0000 -175972.4816 20300.0746 244.7799 0.0000 30568.2547 -117698.8930 297.2061 -148267.1476 -117651.6508 298.9180 -111.3935 -25.1462 498618.7594 6.9102 7.8348
ENERGY: 28000 1663.6087 2339.4961 3205.1627 0.0000 -175464.3117 19773.9846 267.6337 0.0000 30787.0201 -117427.4058 299.3331 -148214.4259 -117398.1331 299.5043 26.4745 44.0874 496830.4693 -12.5421 -12.6179
ENERGY: 29000 1646.0563 2391.8704 3200.5758 0.0000 -176100.4842 20274.2327 266.1020 0.0000 30796.9004 -117524.7466 299.4292 -148321.6470 -117471.3806 299.8313 123.6663 71.1842 498392.3862 2.8581 3.2219
ENERGY: 30000 1677.3079 2406.4230 3183.0250 0.0000 -175819.1302 20004.5265 259.4753 0.0000 30962.7553 -117325.6173 301.0417 -148288.3725 -117284.2186 300.2304 -26.8446 50.2211 497935.7133 -11.0843 -10.6695
TCL: Setting parameter constraintScaling to 0.15625
TCL: Running for 5000 steps
ETITLE: TS BOND ANGLE DIHED IMPRP ELECT VDW BOUNDARY MISC KINETIC TOTAL TEMP POTENTIAL TOTAL3 TEMPAVG PRESSURE GPRESSURE VOLUME PRESSAVG GPRESSAVG
ENERGY: 30000 1677.3079 2406.4230 3183.0250 0.0000 -175819.1302 20004.5265 129.7377 0.0000 30960.6963 -117457.4139 301.0217 -148418.1102 -117411.8542 301.0217 -60.9707 13.7786 497935.7133 -60.9707 13.7786
ENERGY: 31000 1680.2106 2433.6710 3197.9991 0.0000 -175974.4348 20048.8826 189.9513 0.0000 30736.4538 -117687.2663 298.8415 -148423.7202 -117638.9449 299.5504 -122.4235 -15.8002 497221.8446 6.6962 6.8373
ENERGY: 32000 1690.7226 2361.2011 3208.1465 0.0000 -176177.2613 20095.9232 216.5581 0.0000 30911.6412 -117693.0686 300.5448 -148604.7098 -117639.5276 299.0162 -41.9443 32.3182 498216.8623 3.3353 3.1806
ENERGY: 33000 1648.1956 2412.8420 3237.3012 0.0000 -175885.3602 20183.4984 207.1406 0.0000 30974.2921 -117222.0902 301.1539 -148196.3824 -117168.9750 299.5146 -29.3904 11.7687 497258.8049 -1.3643 -1.2107
ENERGY: 34000 1640.8298 2353.9458 3237.9243 0.0000 -175802.9250 20076.7692 204.7865 0.0000 30906.0305 -117382.6390 300.4902 -148288.6695 -117341.8977 300.9401 37.0874 44.3423 497638.3418 8.8279 8.2954
ENERGY: 35000 1645.7447 2442.5925 3222.6124 0.0000 -175892.0282 20140.3228 211.5503 0.0000 30719.8868 -117509.3188 298.6804 -148229.2056 -117464.0675 301.2605 -10.8852 29.4671 497355.6956 -3.1123 -3.1929
TCL: Setting parameter constraintScaling to 0.078125
TCL: Running for 5000 steps
ETITLE: TS BOND ANGLE DIHED IMPRP ELECT VDW BOUNDARY MISC KINETIC TOTAL TEMP POTENTIAL TOTAL3 TEMPAVG PRESSURE GPRESSURE VOLUME PRESSAVG GPRESSAVG
ENERGY: 35000 1645.7447 2442.5925 3222.6124 0.0000 -175892.0282 20140.3228 105.7751 0.0000 30717.8085 -117617.1722 298.6602 -148334.9807 -117572.6592 298.6602 -44.8796 -3.0347 497355.6956 -44.8796 -3.0347
ENERGY: 36000 1686.6000 2399.5429 3195.9021 0.0000 -176251.3119 20341.4413 151.5692 0.0000 30695.8872 -117780.3693 298.4470 -148476.2564 -117731.1804 298.9106 28.1044 41.8109 497617.3946 -6.6081 -6.0352
ENERGY: 37000 1636.1223 2420.4416 3227.0855 0.0000 -176018.6225 20290.6235 161.5866 0.0000 30776.6857 -117506.0775 299.2326 -148282.7631 -117453.4558 299.2319 -70.6996 54.1104 497489.8624 1.3126 1.1170
ENERGY: 38000 1693.1808 2384.6692 3202.3434 0.0000 -175488.6338 20115.6441 177.3225 0.0000 30694.5799 -117220.8937 298.4343 -147915.4736 -117193.6429 299.6182 -37.3932 -0.9372 498776.0142 5.2488 5.7013
ENERGY: 39000 1611.7119 2426.0869 3178.3755 0.0000 -175495.7849 20076.2185 179.2576 0.0000 30979.9431 -117044.1914 301.2088 -148024.1345 -117008.8633 300.3077 147.6385 60.4705 498860.7644 13.5844 13.5674
ENERGY: 40000 1631.8769 2416.5586 3159.9230 0.0000 -175582.0477 19990.9387 165.3765 0.0000 30734.9782 -117482.3958 298.8271 -148217.3740 -117440.1320 299.6813 66.8545 -13.0682 497336.5754 -9.5045 -9.7776
TCL: Setting parameter constraintScaling to 0.0390625
TCL: Running for 5000 steps
ETITLE: TS BOND ANGLE DIHED IMPRP ELECT VDW BOUNDARY MISC KINETIC TOTAL TEMP POTENTIAL TOTAL3 TEMPAVG PRESSURE GPRESSURE VOLUME PRESSAVG GPRESSAVG
ENERGY: 40000 1631.8769 2416.5586 3159.9230 0.0000 -175582.0477 19990.9387 82.6882 0.0000 30732.8981 -117567.1641 298.8069 -148300.0622 -117524.6353 298.8069 46.1885 -39.2611 497336.5754 46.1885 -39.2611
ENERGY: 41000 1591.6259 2370.4603 3183.1671 0.0000 -175872.0080 20160.4363 110.1325 0.0000 30818.0379 -117638.1480 299.6347 -148456.1859 -117582.2715 299.6460 140.4550 109.4181 498487.2771 7.4034 7.1974
ENERGY: 42000 1605.9215 2357.2732 3207.8250 0.0000 -175498.6147 20047.4727 119.3801 0.0000 30782.7569 -117377.9854 299.2917 -148160.7423 -117333.5884 300.3879 28.2894 43.9881 497962.9692 -2.2142 -2.1617
ENERGY: 43000 1657.4523 2425.7318 3195.2567 0.0000 -175556.7739 19958.0608 116.6113 0.0000 30880.9465 -117322.7145 300.2463 -148203.6610 -117267.2987 301.2955 17.6614 4.0396 497892.9408 -2.7009 -2.3445
ENERGY: 44000 1606.6320 2425.6678 3173.5869 0.0000 -175892.0742 20074.2509 113.1463 0.0000 30842.6463 -117656.1439 299.8739 -148498.7902 -117605.4327 300.3090 2.7908 -0.8304 497908.6528 8.3411 8.5304
ENERGY: 45000 1672.6068 2441.4699 3201.4545 0.0000 -175833.9787 20096.1985 128.0574 0.0000 30706.0950 -117588.0965 298.5463 -148294.1915 -117527.2520 300.0092 -122.8005 -14.2608 496766.9790 2.3803 2.6189
TCL: Setting parameter constraintScaling to 0.01953125
TCL: Running for 5000 steps
ETITLE: TS BOND ANGLE DIHED IMPRP ELECT VDW BOUNDARY MISC KINETIC TOTAL TEMP POTENTIAL TOTAL3 TEMPAVG PRESSURE GPRESSURE VOLUME PRESSAVG GPRESSAVG
ENERGY: 45000 1672.6068 2441.4699 3201.4545 0.0000 -175833.9787 20096.1985 64.0287 0.0000 30704.0675 -117654.1527 298.5266 -148358.2202 -117614.7414 298.5266 -131.0896 -20.6768 496766.9790 -131.0896 -20.6768
ENERGY: 46000 1633.1128 2474.5289 3176.4528 0.0000 -175652.6020 19952.0860 76.5453 0.0000 30644.9646 -117694.9117 297.9519 -148339.8762 -117647.4182 300.6671 23.7433 -10.9593 495725.2085 -9.1964 -9.3179
ENERGY: 47000 1674.0439 2426.9547 3213.0012 0.0000 -175729.2083 20003.6490 84.7844 0.0000 30845.1841 -117481.5910 299.8986 -148326.7751 -117433.6588 301.2770 -9.6088 -28.4275 498514.1575 18.8619 18.7545
ENERGY: 48000 1628.5137 2431.2105 3195.6314 0.0000 -175934.9839 20244.1717 83.7148 0.0000 30986.6065 -117365.1353 301.2736 -148351.7418 -117321.7196 300.9886 -90.1734 35.2369 498226.0884 4.4293 4.2299
ENERGY: 49000 1662.2524 2420.4202 3235.8003 0.0000 -176100.2968 20122.9437 94.0087 0.0000 30935.2709 -117629.6007 300.7745 -148564.8716 -117589.2610 300.2717 -13.8408 66.3690 498074.6413 8.3340 8.0077
ENERGY: 50000 1626.4358 2381.5567 3194.3317 0.0000 -175825.3362 20020.3198 103.0369 0.0000 30707.3281 -117792.3273 298.5583 -148499.6554 -117753.3702 299.4172 31.8925 9.9850 496904.3523 1.5693 1.1729
TCL: Setting parameter constraintScaling to 0
TCL: Running for 5000 steps
ETITLE: TS BOND ANGLE DIHED IMPRP ELECT VDW BOUNDARY MISC KINETIC TOTAL TEMP POTENTIAL TOTAL3 TEMPAVG PRESSURE GPRESSURE VOLUME PRESSAVG GPRESSAVG
ENERGY: 50000 1626.4358 2381.5567 3194.3317 0.0000 -175825.3362 20020.3198 0.0000 0.0000 30705.3197 -117897.3726 298.5388 -148602.6923 -117855.2300 298.5388 11.2297 -7.8279 496904.3523 11.2297 -7.8279
ENERGY: 51000 1584.3902 2458.3827 3166.3518 0.0000 -175821.5204 20053.2886 0.0000 0.0000 30741.0973 -117818.0099 298.8866 -148559.1072 -117773.9440 299.5276 57.6807 44.2615 497120.5401 0.5579 0.7355
ENERGY: 52000 1568.3683 2373.2881 3194.2928 0.0000 -175955.3643 19997.3488 0.0000 0.0000 30925.1229 -117896.9435 300.6758 -148822.0664 -117850.6172 299.7469 -46.7205 10.8759 496743.7789 -0.4169 -0.6266
ENERGY: 53000 1652.7536 2409.9113 3196.3476 0.0000 -175859.2216 19929.4450 0.0000 0.0000 30995.0175 -117675.7465 301.3554 -148670.7641 -117632.0584 299.3008 -30.6987 -8.5341 495845.6957 -3.5948 -3.0330
ENERGY: 54000 1609.8977 2424.8510 3212.5470 0.0000 -175729.0915 20116.0918 0.0000 0.0000 30845.3325 -117520.3716 299.9001 -148365.7040 -117472.5879 300.2570 -41.0413 -2.0468 498095.7241 9.1251 9.8406
ENERGY: 55000 1610.1488 2369.5489 3190.7369 0.0000 -175834.2309 20026.6843 0.0000 0.0000 30994.8621 -117642.2499 301.3539 -148637.1120 -117602.0515 300.0691 -60.2393 -48.5313 496092.4705 -12.9437 -12.7138
