Info: SIMULATION PARAMETERS:
Info: TIMESTEP               1
Info: NUMBER OF STEPS        0
Info: STEPS PER CYCLE        10
Info: PERIODIC CELL BASIS 1  72.449 0 0
Info: PERIODIC CELL BASIS 2  0 93.247 0
Info: PERIODIC CELL BASIS 3  0 0 79.185
Info: PERIODIC CELL CENTER   -0.248 -0.156 -0.047
Info: WRAPPING WATERS AROUND PERIODIC BOUNDARIES ON OUTPUT.
Info: WRAPPING ALL CLUSTERS AROUND PERIODIC BOUNDARIES ON OUTPUT.
Info: FIRST LDB TIMESTEP     50
Info: LAST LDB TIMESTEP     -1
Info: HOM BACKGROUND SCALING 1
Info: PME BACKGROUND SCALING 1
Info: MIN ATOMS PER PATCH    40
Info: VELOCITY FILE          ../replicas/rep77/equilibration/eq1.vel
Info: CENTER OF MASS MOVING INITIALLY? NO
Info: DIELECTRIC             1
Info: EXCLUDE                SCALED ONE-FOUR
Info: 1-4 ELECTROSTATICS SCALED BY 0.833333
Info: MODIFIED 1-4 VDW PARAMETERS WILL BE USED
Info: DCD FILENAME           ../replicas/rep77/equilibration/eq2.dcd
Info: DCD FREQUENCY          5000
Info: DCD FIRST STEP         5000
Info: DCD FILE WILL CONTAIN UNIT CELL DATA
Info: XST FILENAME           ../replicas/rep77/equilibration/eq2.xst
Info: XST FREQUENCY          5000
Info: NO VELOCITY DCD OUTPUT
Info: NO FORCE DCD OUTPUT
Info: OUTPUT FILENAME        ../replicas/rep77/equilibration/eq2
Info: RESTART FILENAME       ../replicas/rep77/equilibration/eq2.restart
Info: RESTART FREQUENCY      5000
Info: BINARY RESTART FILES WILL BE USED
Info: SWITCHING ACTIVE
Info: SWITCHING ON           10
Info: SWITCHING OFF          12
Info: PAIRLIST DISTANCE      13.5
Info: PAIRLIST SHRINK RATE   0.01
Info: PAIRLIST GROW RATE     0.01
Info: PAIRLIST TRIGGER       0.3
Info: PAIRLISTS PER CYCLE    2
Info: PAIRLISTS ENABLED
Info: MARGIN                 0.48
Info: HYDROGEN GROUP CUTOFF  2.5
Info: PATCH DIMENSION        16.48
Info: ENERGY OUTPUT STEPS    500
Info: CROSSTERM ENERGY INCLUDED IN DIHEDRAL
Info: TIMING OUTPUT STEPS    5000
Info: PRESSURE OUTPUT STEPS  500
Info: HARMONIC CONSTRAINTS ACTIVE
Info: HARMONIC CONS EXP      2
Info: HARMONIC CONS SCALING  10
Info: LANGEVIN DYNAMICS ACTIVE
Info: LANGEVIN TEMPERATURE   300
Info: LANGEVIN USING BBK INTEGRATOR
Info: LANGEVIN DAMPING COEFFICIENT IS 5 INVERSE PS
Info: LANGEVIN DYNAMICS NOT APPLIED TO HYDROGENS
Info: BERENDSEN PRESSURE COUPLING ACTIVE
Info:     TARGET PRESSURE IS 1 BAR
Info:     COMPRESSIBILITY ESTIMATE IS 4.57e-05 BAR^(-1)
Info:     RELAXATION TIME IS 100 FS
Info:     APPLIED EVERY 2 STEPS
Info:     PRESSURE CONTROL IS GROUP-BASED
Info:       CELL FLUCTUATION IS ISOTROPIC
Info: PARTICLE MESH EWALD (PME) ACTIVE
Info: PME TOLERANCE               1e-06
Info: PME EWALD COEFFICIENT       0.257952
Info: PME INTERPOLATION ORDER     4
Info: PME GRID DIMENSIONS         80 96 80
Info: PME MAXIMUM GRID SPACING    1
Info: FULL ELECTROSTATIC EVALUATION FREQUENCY      2
Info: USING VERLET I (r-RESPA) MTS SCHEME.
Info: C1 SPLITTING OF LONG RANGE ELECTROSTATICS
Info: PLACING ATOMS IN PATCHES BY HYDROGEN GROUPS
Info: RIGID BONDS TO HYDROGEN : WATER
Info:         ERROR TOLERANCE : 1e-05
Info:          MAX ITERATIONS : 100
Info: RIGID WATER USING SETTLE ALGORITHM
Info: RANDOM NUMBER SEED     1503710616
Info: USE HYDROGEN BONDS?    NO
Info: Using AMBER format force field!
Info: AMBER PARM FILE        ../build/complex.top
Info: COORDINATE PDB         ../replicas/rep77/equilibration/eq1.coor
Info: Exclusions in PARM file will be ignored!
Info: SCNB (VDW SCALING)     2
Info: USING ARITHMETIC MEAN TO COMBINE L-J SIGMA PARAMETERS
Info: SUMMARY OF PARAMETERS:
Info: 71 BONDS
Info: 145 ANGLES
Info: 76 DIHEDRAL
Info: 0 IMPROPER
Info: 0 CROSSTERM
Info: 0 VDW
Info: 190 VDW_PAIRS
Info: 0 NBTHOLE_PAIRS
Info: STRUCTURE SUMMARY:
Info: 49394 ATOMS
Info: 49448 BONDS
Info: 8698 ANGLES
Info: 18780 DIHEDRALS
Info: 0 IMPROPERS
Info: 0 CROSSTERMS
Info: 0 EXCLUSIONS
Info: 2336 CONSTRAINTS
Info: 44667 RIGID BONDS
Info: 103515 DEGREES OF FREEDOM
Info: 17225 HYDROGEN GROUPS
Info: 4 ATOMS IN LARGEST HYDROGEN GROUP
Info: 17225 MIGRATION GROUPS
Info: 4 ATOMS IN LARGEST MIGRATION GROUP
Info: TOTAL MASS = 301478 amu
Info: TOTAL CHARGE = 1.00115e-05 e
Info: MASS DENSITY = 0.935846 g/cm^3
Info: ATOM DENSITY = 0.0923345 atoms/A^3
Info: ADDED 70656 IMPLICIT EXCLUSIONS
Info: NONBONDED TABLE R-SQUARED SPACING: 0.0625
Info: NONBONDED TABLE SIZE: 769 POINTS
Info: REMOVING COM VELOCITY -0.027284 0.00829948 0.0253243
TCL: Running for 5000 steps
ETITLE: TS BOND ANGLE DIHED IMPRP ELECT VDW BOUNDARY MISC KINETIC TOTAL TEMP POTENTIAL TOTAL3 TEMPAVG PRESSURE GPRESSURE VOLUME PRESSAVG GPRESSAVG
ENERGY: 0 382.4540 1213.9314 2907.1735 0.0000 -212602.7685 29449.9283 0.0000 0.0000 9980.6464 -168668.6350 97.0389 -178649.2814 -168659.0177 97.0389 -2427.3515 -2530.1046 534946.2959 -2427.3515 -2530.1046
ENERGY: 1000 1246.8970 1940.9040 3123.0953 0.0000 -193541.9216 26312.8088 776.3737 0.0000 24238.5749 -135903.2678 235.6645 -160141.8427 -135875.5378 218.5856 -36.7767 -40.8412 522329.0160 -10.8832 -10.5911
ENERGY: 2000 1490.0897 2139.3904 3101.0007 0.0000 -184617.4565 23659.6568 781.4374 0.0000 28043.2547 -125402.6268 272.6563 -153445.8815 -125356.8863 265.0155 -37.9512 -23.5328 517404.0659 -11.2824 -11.2044
ENERGY: 3000 1509.7126 2246.9304 3151.3264 0.0000 -179293.3167 21718.4140 805.3692 0.0000 29533.2662 -120328.2979 287.1432 -149861.5640 -120290.9292 284.4528 -56.2623 0.9869 511034.8145 -26.6764 -26.9147
ENERGY: 4000 1558.9220 2276.9486 3170.0538 0.0000 -177173.8207 21085.2718 805.9706 0.0000 30380.1743 -117896.4796 295.3775 -148276.6539 -117864.6941 293.4705 -140.6475 -9.0640 507462.5166 -15.5822 -15.3019
ENERGY: 5000 1650.7704 2289.0444 3132.3614 0.0000 -175928.0108 20223.9951 819.6933 0.0000 30724.9014 -117087.2448 298.7291 -147812.1462 -117039.5077 298.0023 -92.1363 -2.9826 504309.9360 -5.8373 -5.8548
TCL: Setting parameter constraintScaling to 5.0
TCL: Running for 5000 steps
ETITLE: TS BOND ANGLE DIHED IMPRP ELECT VDW BOUNDARY MISC KINETIC TOTAL TEMP POTENTIAL TOTAL3 TEMPAVG PRESSURE GPRESSURE VOLUME PRESSAVG GPRESSAVG
ENERGY: 5000 1650.7704 2289.0444 3132.3614 0.0000 -175928.0108 20223.9951 409.8466 0.0000 30722.8675 -117499.1254 298.7094 -148221.9928 -117457.9514 298.7094 -211.6028 -114.5882 504309.9360 -211.6028 -114.5882
ENERGY: 6000 1613.2808 2282.2685 3161.2863 0.0000 -175020.9748 20021.6660 623.3965 0.0000 30640.9627 -116678.1139 297.9130 -147319.0766 -116632.7109 299.6665 -13.7466 -28.5833 502447.3080 -7.9560 -8.1041
ENERGY: 7000 1573.2410 2350.0698 3163.0513 0.0000 -175242.0619 20117.2074 641.4947 0.0000 30666.3001 -116730.6976 298.1594 -147396.9977 -116692.0800 300.1404 51.5099 -27.8660 501920.8021 5.6602 5.7062
ENERGY: 8000 1584.6469 2267.8182 3164.6629 0.0000 -175194.0040 20115.2159 654.5657 0.0000 31089.1997 -116317.8948 302.2711 -147407.0944 -116284.3725 300.9708 23.1690 -28.2784 501783.6304 -6.0172 -6.2702
ENERGY: 9000 1612.1331 2315.2882 3166.6338 0.0000 -174986.9499 20025.2347 651.1074 0.0000 30973.9974 -116242.5552 301.1510 -147216.5526 -116208.5676 300.1330 -71.9893 -56.9315 502243.3916 -3.9592 -4.9230
ENERGY: 10000 1567.0351 2368.7237 3152.0525 0.0000 -175344.2103 20015.2812 663.4964 0.0000 30915.2584 -116662.3630 300.5799 -147577.6214 -116615.9216 300.7424 -42.6371 -8.8543 501179.3457 -11.0291 -10.9089
TCL: Setting parameter constraintScaling to 2.5
TCL: Running for 5000 steps
ETITLE: TS BOND ANGLE DIHED IMPRP ELECT VDW BOUNDARY MISC KINETIC TOTAL TEMP POTENTIAL TOTAL3 TEMPAVG PRESSURE GPRESSURE VOLUME PRESSAVG GPRESSAVG
ENERGY: 10000 1567.0351 2368.7237 3152.0525 0.0000 -175344.2103 20015.2812 331.7482 0.0000 30913.2175 -116996.1521 300.5601 -147909.3696 -116952.4260 300.5601 -88.3139 -60.8366 501179.3457 -88.3139 -60.8366
ENERGY: 11000 1646.8477 2294.0046 3167.2572 0.0000 -175562.0199 20188.9772 511.3358 0.0000 30808.8855 -116944.7119 299.5457 -147753.5974 -116896.6639 300.0215 -77.6838 -22.0111 500217.1997 0.4399 0.5142
ENERGY: 12000 1669.5570 2367.8084 3195.2140 0.0000 -175735.6498 20271.6465 505.3227 0.0000 30761.2849 -116964.8164 299.0829 -147726.1012 -116926.5470 300.0424 -1.0439 -33.4709 501059.9700 0.7643 0.9491
ENERGY: 13000 1611.0736 2373.0019 3184.4534 0.0000 -175241.4082 20077.9317 543.1536 0.0000 30836.7550 -116615.0390 299.8167 -147451.7941 -116567.2692 299.9124 -100.1796 -30.6293 502256.3204 15.2027 16.0102
ENERGY: 14000 1679.2681 2380.3902 3174.9837 0.0000 -175149.4506 19831.8918 523.2697 0.0000 30809.8986 -116749.7485 299.5555 -147559.6471 -116710.7222 300.4948 -59.5909 -26.1223 500309.5719 -6.2237 -5.9176
ENERGY: 15000 1605.9563 2366.9712 3147.3174 0.0000 -175335.0050 19861.0370 514.9143 0.0000 30927.4161 -116911.3928 300.6981 -147838.8089 -116860.2756 300.0288 -67.6368 -5.2723 500420.4114 -7.8069 -7.6915
TCL: Setting parameter constraintScaling to 1.25
TCL: Running for 5000 steps
ETITLE: TS BOND ANGLE DIHED IMPRP ELECT VDW BOUNDARY MISC KINETIC TOTAL TEMP POTENTIAL TOTAL3 TEMPAVG PRESSURE GPRESSURE VOLUME PRESSAVG GPRESSAVG
ENERGY: 15000 1605.9563 2366.9712 3147.3174 0.0000 -175335.0050 19861.0370 257.4571 0.0000 30925.3762 -117170.8899 300.6783 -148096.2661 -117124.3939 300.6783 -120.8110 -69.6795 500420.4114 -120.8110 -69.6795
ENERGY: 16000 1629.6752 2380.3484 3180.3412 0.0000 -175622.2714 20052.9585 386.4468 0.0000 30644.2326 -117348.2688 297.9448 -147992.5014 -117305.8779 300.1260 -138.0210 -82.3502 500453.6857 3.5944 3.0842
ENERGY: 17000 1632.1737 2373.5678 3198.4242 0.0000 -175589.7743 20199.1087 396.7403 0.0000 30974.9171 -116814.8424 301.1600 -147789.7595 -116769.4174 300.5658 -127.0533 -38.2104 501397.7602 4.6431 4.9509
ENERGY: 18000 1611.4911 2427.1357 3205.0006 0.0000 -175832.9149 20130.2295 401.8697 0.0000 30872.9060 -117184.2824 300.1681 -148057.1883 -117137.8212 299.9444 -87.3026 7.3608 499192.3015 -6.1066 -5.8450
ENERGY: 19000 1656.6503 2402.5307 3184.7767 0.0000 -176136.7241 20358.0898 408.9244 0.0000 30819.2083 -117306.5439 299.6461 -148125.7522 -117253.5009 299.2250 -162.3764 -12.0974 499098.4922 -3.0412 -2.4325
ENERGY: 20000 1672.2691 2406.3988 3203.5183 0.0000 -175824.6683 20112.3375 405.4142 0.0000 30715.6210 -117309.1095 298.6389 -148024.7305 -117272.9155 299.1503 13.3562 18.6781 498503.5819 -0.4785 -0.1819
TCL: Setting parameter constraintScaling to 0.625
TCL: Running for 5000 steps
ETITLE: TS BOND ANGLE DIHED IMPRP ELECT VDW BOUNDARY MISC KINETIC TOTAL TEMP POTENTIAL TOTAL3 TEMPAVG PRESSURE GPRESSURE VOLUME PRESSAVG GPRESSAVG
ENERGY: 20000 1672.2691 2406.3988 3203.5183 0.0000 -175824.6683 20112.3375 202.7071 0.0000 30713.5655 -117513.8720 298.6189 -148227.4376 -117471.3293 298.6189 -20.4242 -16.0166 498503.5819 -20.4242 -16.0166
ENERGY: 21000 1661.2374 2359.1707 3186.7895 0.0000 -175983.4451 20318.3060 327.4579 0.0000 30862.9594 -117267.5243 300.0714 -148130.4837 -117217.0364 299.8632 -125.0093 -45.0627 499895.9271 11.3834 11.7519
ENERGY: 22000 1617.3005 2346.1718 3179.0743 0.0000 -175984.6591 20134.3497 318.0963 0.0000 30816.4867 -117573.1799 299.6196 -148389.6666 -117532.9681 299.3993 -139.8045 -68.8314 498226.6644 4.8015 5.1049
ENERGY: 23000 1599.7192 2432.2697 3190.9059 0.0000 -175368.9755 20027.5212 337.3832 0.0000 30825.6010 -116955.5754 299.7082 -147781.1764 -116914.1916 301.0627 27.0911 44.0745 498747.3406 3.2129 3.2065
ENERGY: 24000 1631.5762 2361.4665 3175.2195 0.0000 -175373.6804 20014.0143 319.6647 0.0000 30891.4209 -116980.3184 300.3482 -147871.7393 -116937.1229 300.2611 -89.7114 -11.7946 498056.4714 -7.3719 -7.2708
ENERGY: 25000 1622.9354 2407.7730 3198.7681 0.0000 -175350.8124 19944.5242 322.5649 0.0000 30857.0753 -116997.1714 300.0142 -147854.2467 -116962.1471 300.5881 46.3864 44.7887 498504.5842 4.2543 3.5935
TCL: Setting parameter constraintScaling to 0.3125
TCL: Running for 5000 steps
ETITLE: TS BOND ANGLE DIHED IMPRP ELECT VDW BOUNDARY MISC KINETIC TOTAL TEMP POTENTIAL TOTAL3 TEMPAVG PRESSURE GPRESSURE VOLUME PRESSAVG GPRESSAVG
ENERGY: 25000 1622.9354 2407.7730 3198.7681 0.0000 -175350.8124 19944.5242 161.2825 0.0000 30855.0246 -117160.5045 299.9943 -148015.5292 -117119.5063 299.9943 7.1126 3.4541 498504.5842 7.1126 3.4541
ENERGY: 26000 1644.2235 2327.9680 3211.1862 0.0000 -175343.7036 19910.9241 244.0528 0.0000 30883.0792 -117122.2697 300.2671 -148005.3490 -117071.9848 299.8302 -54.2707 13.1404 498302.2827 -2.7852 -2.2647
ENERGY: 27000 1619.6100 2399.4104 3220.5450 0.0000 -175916.6994 20119.1426 261.4204 0.0000 30803.4912 -117493.0797 299.4932 -148296.5709 -117443.1059 299.5997 -73.4190 -51.0469 497445.3678 6.7145 6.7135
ENERGY: 28000 1624.6041 2397.9767 3151.5252 0.0000 -175851.8971 20182.3422 264.9503 0.0000 31284.7795 -116945.7191 304.1727 -148230.4985 -116895.5567 300.2271 -82.7540 24.2949 497722.6665 2.8422 2.8241
ENERGY: 29000 1682.4847 2414.0302 3252.3181 0.0000 -175632.6951 20023.0528 265.0229 0.0000 30748.3884 -117247.3980 298.9575 -147995.7864 -117194.7462 300.2909 21.0797 20.6925 497604.4896 -5.0134 -5.0168
ENERGY: 30000 1623.9265 2383.9954 3222.0011 0.0000 -175124.9876 19676.3729 260.5571 0.0000 30736.0565 -117222.0781 298.8376 -147958.1346 -117181.0219 299.5679 -175.6486 -133.6457 498285.3895 10.3635 10.2917
TCL: Setting parameter constraintScaling to 0.15625
TCL: Running for 5000 steps
ETITLE: TS BOND ANGLE DIHED IMPRP ELECT VDW BOUNDARY MISC KINETIC TOTAL TEMP POTENTIAL TOTAL3 TEMPAVG PRESSURE GPRESSURE VOLUME PRESSAVG GPRESSAVG
ENERGY: 30000 1623.9265 2383.9954 3222.0011 0.0000 -175124.9876 19676.3729 130.2785 0.0000 30734.0128 -117354.4004 298.8177 -148088.4131 -117311.6415 298.8177 -218.2040 -178.2766 498285.3895 -218.2040 -178.2766
ENERGY: 31000 1600.3588 2435.6904 3223.7573 0.0000 -176099.8519 20196.2115 189.4209 0.0000 30938.6673 -117515.7458 300.8075 -148454.4131 -117472.1927 300.7475 9.7097 -68.7574 496409.6874 3.5002 3.3875
ENERGY: 32000 1620.0321 2412.3649 3215.7719 0.0000 -175928.1197 20352.0326 204.2202 0.0000 30812.7451 -117310.9529 299.5832 -148123.6980 -117265.5341 300.5322 114.1762 99.6481 497903.5412 4.4022 4.5632
ENERGY: 33000 1659.7710 2396.9222 3254.9800 0.0000 -175921.5725 20238.7969 199.5845 0.0000 30886.6608 -117284.8571 300.3019 -148171.5180 -117242.9940 299.9943 38.3870 37.5390 497961.2614 -10.0750 -9.7852
ENERGY: 34000 1603.2493 2412.4123 3230.9904 0.0000 -175979.8694 20163.9306 201.7022 0.0000 30771.2368 -117596.3477 299.1796 -148367.5845 -117550.8139 299.0483 19.5919 -53.3575 498613.6375 9.4183 9.3387
ENERGY: 35000 1642.3928 2365.2128 3229.6898 0.0000 -175630.2509 20062.2307 200.5318 0.0000 30747.3059 -117382.8870 298.9470 -148130.1930 -117327.4116 300.4233 110.3392 20.6843 496445.6307 -4.8404 -5.3687
TCL: Setting parameter constraintScaling to 0.078125
TCL: Running for 5000 steps
ETITLE: TS BOND ANGLE DIHED IMPRP ELECT VDW BOUNDARY MISC KINETIC TOTAL TEMP POTENTIAL TOTAL3 TEMPAVG PRESSURE GPRESSURE VOLUME PRESSAVG GPRESSAVG
ENERGY: 35000 1642.3928 2365.2128 3229.6898 0.0000 -175630.2509 20062.2307 100.2659 0.0000 30745.2846 -117485.1743 298.9273 -148230.4589 -117442.1500 298.9273 102.7285 11.8006 496445.6307 102.7285 11.8006
ENERGY: 36000 1709.4450 2393.1901 3207.6373 0.0000 -175625.2897 20055.6097 142.7121 0.0000 30819.7092 -117296.9862 299.6509 -148116.6955 -117256.8870 300.5262 -74.8100 2.4450 497070.8237 11.6016 11.5360
ENERGY: 37000 1628.3429 2421.2076 3238.1409 0.0000 -175411.3770 19723.6222 151.9232 0.0000 30746.9535 -117501.1868 298.9436 -148248.1402 -117460.8700 299.9532 -98.3694 -71.8751 498030.4615 12.8121 13.1582
ENERGY: 38000 1650.6398 2387.9509 3216.1047 0.0000 -175729.2559 20098.7207 174.5349 0.0000 30684.0781 -117517.2268 298.3322 -148201.3049 -117464.7452 299.1443 -95.9149 -69.5965 498834.6391 22.5077 22.3321
ENERGY: 39000 1617.4198 2385.4171 3236.9416 0.0000 -175489.3345 19819.3119 160.0132 0.0000 30774.0793 -117496.1516 299.2073 -148270.2310 -117454.3795 299.1614 -75.3174 1.5633 496258.3491 -8.1090 -8.8204
ENERGY: 40000 1660.1121 2415.2139 3204.0171 0.0000 -175495.2664 19971.3052 178.6170 0.0000 30928.3790 -117137.6220 300.7075 -148066.0010 -117089.9480 300.4232 -104.1514 -13.0303 497303.4254 8.8914 9.3026
TCL: Setting parameter constraintScaling to 0.0390625
TCL: Running for 5000 steps
ETITLE: TS BOND ANGLE DIHED IMPRP ELECT VDW BOUNDARY MISC KINETIC TOTAL TEMP POTENTIAL TOTAL3 TEMPAVG PRESSURE GPRESSURE VOLUME PRESSAVG GPRESSAVG
ENERGY: 40000 1660.1121 2415.2139 3204.0171 0.0000 -175495.2664 19971.3052 89.3085 0.0000 30926.3258 -117228.9837 300.6875 -148155.3096 -117183.7896 300.6875 -106.5247 -18.9396 497303.4254 -106.5247 -18.9396
ENERGY: 41000 1650.4830 2379.8368 3183.6246 0.0000 -175964.6633 20071.3673 117.4781 0.0000 30931.1454 -117630.7281 300.7344 -148561.8735 -117583.2514 299.3964 -103.0336 -58.9400 498864.7038 20.7420 20.9134
ENERGY: 42000 1564.8691 2456.1253 3180.9846 0.0000 -176221.1286 20235.9041 120.2287 0.0000 31040.1601 -117622.8568 301.7943 -148663.0169 -117568.3245 299.7828 -101.4448 1.7246 498710.8586 -4.1533 -4.3701
ENERGY: 43000 1654.7525 2421.2655 3197.3158 0.0000 -175895.4916 20182.6404 130.5619 0.0000 30866.5879 -117442.3675 300.1067 -148308.9554 -117398.6526 299.9216 81.5613 92.6267 498707.1959 4.1856 4.0865
ENERGY: 44000 1648.4174 2321.9210 3189.7626 0.0000 -176453.7708 20278.8298 117.8257 0.0000 30801.2542 -118095.7601 299.4715 -148897.0143 -118045.9825 298.8388 -45.1614 -38.0605 498093.4535 -7.5512 -7.5418
ENERGY: 45000 1619.7992 2432.3433 3192.1337 0.0000 -175740.4193 19983.0295 121.2516 0.0000 30710.2350 -117681.6270 298.5865 -148391.8620 -117636.6329 299.2377 -128.4586 -91.3906 496647.5110 -11.1013 -11.6047
TCL: Setting parameter constraintScaling to 0.01953125
TCL: Running for 5000 steps
ETITLE: TS BOND ANGLE DIHED IMPRP ELECT VDW BOUNDARY MISC KINETIC TOTAL TEMP POTENTIAL TOTAL3 TEMPAVG PRESSURE GPRESSURE VOLUME PRESSAVG GPRESSAVG
ENERGY: 45000 1619.7992 2432.3433 3192.1337 0.0000 -175740.4193 19983.0295 60.6258 0.0000 30708.2109 -117744.2770 298.5669 -148452.4878 -117700.0660 298.5669 -141.3658 -101.9704 496647.5110 -141.3658 -101.9704
ENERGY: 46000 1578.0362 2455.1903 3240.8091 0.0000 -176019.7315 20186.7231 77.1250 0.0000 30718.5352 -117763.3126 298.6672 -148481.8478 -117714.5403 300.2146 -151.8357 -80.4130 496729.2773 -4.6343 -4.3024
ENERGY: 47000 1689.6561 2408.0790 3186.8692 0.0000 -176054.1255 20065.2471 79.2645 0.0000 30918.3815 -117706.6282 300.6103 -148625.0097 -117670.2633 299.7656 -15.3451 69.9770 494967.7465 -7.1291 -6.7842
ENERGY: 48000 1634.3413 2404.7528 3241.2693 0.0000 -175849.4485 20021.5819 91.7776 0.0000 30746.2127 -117709.5129 298.9363 -148455.7256 -117659.1320 299.3876 20.3023 52.7273 496200.2878 0.3125 0.5841
ENERGY: 49000 1645.9558 2428.3961 3191.1003 0.0000 -175640.0475 19885.1861 93.0403 0.0000 30695.4813 -117700.8877 298.4431 -148396.3690 -117661.8540 299.8575 -79.6173 -14.3542 495766.2482 -5.5087 -5.2481
ENERGY: 50000 1658.9406 2386.6491 3191.4221 0.0000 -176182.4082 20363.2367 90.5317 0.0000 30861.9481 -117629.6798 300.0616 -148491.6280 -117583.7663 299.8418 47.3510 18.2271 497693.3672 4.9211 4.7800
TCL: Setting parameter constraintScaling to 0
TCL: Running for 5000 steps
ETITLE: TS BOND ANGLE DIHED IMPRP ELECT VDW BOUNDARY MISC KINETIC TOTAL TEMP POTENTIAL TOTAL3 TEMPAVG PRESSURE GPRESSURE VOLUME PRESSAVG GPRESSAVG
ENERGY: 50000 1658.9406 2386.6491 3191.4221 0.0000 -176182.4082 20363.2367 0.0000 0.0000 30859.9190 -117722.2407 300.0419 -148582.1597 -117681.6644 300.0419 55.4374 14.5733 497693.3672 55.4374 14.5733
ENERGY: 51000 1608.5690 2434.7018 3200.7820 0.0000 -176032.4569 19939.0946 0.0000 0.0000 30632.6887 -118216.6209 297.8326 -148849.3096 -118174.8462 298.8536 -28.0128 -6.5719 495780.3525 -12.7969 -13.2699
ENERGY: 52000 1653.4668 2457.9460 3177.0094 0.0000 -176222.4080 20318.1926 0.0000 0.0000 30841.0640 -117774.7292 299.8586 -148615.7932 -117739.0671 299.5773 40.1322 77.7948 496784.1409 1.9845 2.8166
ENERGY: 53000 1666.1042 2344.9751 3175.1364 0.0000 -176151.0386 20095.7269 0.0000 0.0000 30721.9406 -118147.1555 298.7004 -148869.0961 -118111.2579 298.7662 -111.2745 -94.9076 495735.0843 -9.2862 -9.1221
ENERGY: 54000 1642.5878 2409.0395 3175.5292 0.0000 -176349.3333 20207.0845 0.0000 0.0000 30827.8633 -118087.2289 299.7302 -148915.0921 -118054.0304 299.7364 -56.7681 -84.4964 496213.6223 3.2799 3.5076
ENERGY: 55000 1565.8086 2404.5476 3192.6524 0.0000 -175562.9702 19838.4596 0.0000 0.0000 30957.7958 -117603.7061 300.9935 -148561.5019 -117548.8377 299.7713 50.7940 46.0644 496762.1464 -0.0303 0.1695
