Info: SIMULATION PARAMETERS:
Info: TIMESTEP               2
Info: NUMBER OF STEPS        0
Info: STEPS PER CYCLE        10
Info: PERIODIC CELL BASIS 1  72.449 0 0
Info: PERIODIC CELL BASIS 2  0 93.247 0
Info: PERIODIC CELL BASIS 3  0 0 79.185
Info: PERIODIC CELL CENTER   -0.248 -0.156 -0.047
Info: WRAPPING WATERS AROUND PERIODIC BOUNDARIES ON OUTPUT.
Info: WRAPPING ALL CLUSTERS AROUND PERIODIC BOUNDARIES ON OUTPUT.
Info: FIRST LDB TIMESTEP     50
Info: LAST LDB TIMESTEP     -1
Info: HOM BACKGROUND SCALING 1
Info: PME BACKGROUND SCALING 1
Info: MIN ATOMS PER PATCH    40
Info: INITIAL TEMPERATURE    0
Info: CENTER OF MASS MOVING INITIALLY? NO
Info: DIELECTRIC             1
Info: EXCLUDE                SCALED ONE-FOUR
Info: 1-4 ELECTROSTATICS SCALED BY 0.833333
Info: MODIFIED 1-4 VDW PARAMETERS WILL BE USED
Info: NO DCD TRAJECTORY OUTPUT
Info: NO EXTENDED SYSTEM TRAJECTORY OUTPUT
Info: NO VELOCITY DCD OUTPUT
Info: NO FORCE DCD OUTPUT
Info: OUTPUT FILENAME        ../replicas/rep116/equilibration/eq0
Info: NO RESTART FILE
Info: SWITCHING ACTIVE
Info: SWITCHING ON           10
Info: SWITCHING OFF          12
Info: PAIRLIST DISTANCE      13.5
Info: PAIRLIST SHRINK RATE   0.01
Info: PAIRLIST GROW RATE     0.01
Info: PAIRLIST TRIGGER       0.3
Info: PAIRLISTS PER CYCLE    2
Info: PAIRLISTS ENABLED
Info: MARGIN                 0
Info: HYDROGEN GROUP CUTOFF  2.5
Info: PATCH DIMENSION        16
Info: ENERGY OUTPUT STEPS    500
Info: CROSSTERM ENERGY INCLUDED IN DIHEDRAL
Info: TIMING OUTPUT STEPS    5000
Info: PRESSURE OUTPUT STEPS  500
Info: HARMONIC CONSTRAINTS ACTIVE
Info: HARMONIC CONS EXP      2
Info: HARMONIC CONS SCALING  10
Info: CONJUGATE GRADIENT MINIMIZATION ACTIVE
Info: LINE MINIMIZATION GOAL = 0.001
Info: BABY STEP SIZE = 0.01
Info: TINY STEP SIZE = 1e-06
Info: PARTICLE MESH EWALD (PME) ACTIVE
Info: PME TOLERANCE               1e-06
Info: PME EWALD COEFFICIENT       0.257952
Info: PME INTERPOLATION ORDER     4
Info: PME GRID DIMENSIONS         80 96 80
Info: PME MAXIMUM GRID SPACING    1
Info: FULL ELECTROSTATIC EVALUATION FREQUENCY      2
Info: USING VERLET I (r-RESPA) MTS SCHEME.
Info: C1 SPLITTING OF LONG RANGE ELECTROSTATICS
Info: PLACING ATOMS IN PATCHES BY HYDROGEN GROUPS
Info: RIGID BONDS TO HYDROGEN : ALL
Info:         ERROR TOLERANCE : 1e-05
Info:          MAX ITERATIONS : 100
Info: RIGID WATER USING SETTLE ALGORITHM
Info: RANDOM NUMBER SEED     1503693579
Info: USE HYDROGEN BONDS?    NO
Info: Using AMBER format force field!
Info: AMBER PARM FILE        ../build/complex.top
Info: COORDINATE PDB         ../build/complex.pdb
Info: Exclusions in PARM file will be ignored!
Info: SCNB (VDW SCALING)     2
Info: USING ARITHMETIC MEAN TO COMBINE L-J SIGMA PARAMETERS
Info: SUMMARY OF PARAMETERS:
Info: 71 BONDS
Info: 145 ANGLES
Info: 76 DIHEDRAL
Info: 0 IMPROPER
Info: 0 CROSSTERM
Info: 0 VDW
Info: 190 VDW_PAIRS
Info: 0 NBTHOLE_PAIRS
Info: STRUCTURE SUMMARY:
Info: 49394 ATOMS
Info: 49448 BONDS
Info: 8698 ANGLES
Info: 18780 DIHEDRALS
Info: 0 IMPROPERS
Info: 0 CROSSTERMS
Info: 0 EXCLUSIONS
Info: 2336 CONSTRAINTS
Info: 47058 RIGID BONDS
Info: 101124 DEGREES OF FREEDOM
Info: 17225 HYDROGEN GROUPS
Info: 4 ATOMS IN LARGEST HYDROGEN GROUP
Info: 17225 MIGRATION GROUPS
Info: 4 ATOMS IN LARGEST MIGRATION GROUP
Info: TOTAL MASS = 301478 amu
Info: TOTAL CHARGE = 1.00115e-05 e
Info: MASS DENSITY = 0.935846 g/cm^3
Info: ATOM DENSITY = 0.0923345 atoms/A^3
Info: ADDED 70656 IMPLICIT EXCLUSIONS
Info: NONBONDED TABLE R-SQUARED SPACING: 0.0625
Info: NONBONDED TABLE SIZE: 769 POINTS
Info: REMOVING COM VELOCITY 0 0 0
TCL: Minimizing for 100 steps
ETITLE: TS BOND ANGLE DIHED IMPRP ELECT VDW BOUNDARY MISC KINETIC TOTAL TEMP POTENTIAL TOTAL3 TEMPAVG PRESSURE GPRESSURE VOLUME PRESSAVG GPRESSAVG
ENERGY: 0 155.4176 1012.2698 2855.7272 0.0000 -154496.7913 207729.2052 0.0468 0.0000 0.0000 57255.8753 0.0000 57255.8753 57255.8753 0.0000 116350.2532 86546.1670 534946.2959 116350.2532 86546.1670
ENERGY: 20 304.7544 935.7911 2893.4663 0.0000 -158672.9401 17936.6597 143.9454 0.0000 0.0000 -136458.3232 0.0000 -136458.3232 -136458.3232 0.0000 16523.9390 -239.4555 534946.2959 16523.9390 -239.4555
ENERGY: 40 198.7406 799.5722 2896.9273 0.0000 -162811.4532 16417.9537 221.3029 0.0000 0.0000 -142276.9566 0.0000 -142276.9566 -142276.9566 0.0000 15011.2704 -2135.4697 534946.2959 15011.2704 -2135.4697
ENERGY: 60 130.5287 715.3441 2898.2165 0.0000 -167496.1518 15446.7548 315.2795 0.0000 0.0000 -147990.0283 0.0000 -147990.0283 -147990.0283 0.0000 13793.8849 -3799.3970 534946.2959 13793.8849 -3799.3970
ENERGY: 80 431.2768 765.6313 2904.3782 0.0000 -169937.5246 15121.1528 372.0121 0.0000 0.0000 -150343.0732 0.0000 -150343.0732 -150343.0732 0.0000 13270.3321 -4577.2435 534946.2959 13270.3321 -4577.2435
ENERGY: 100 129.7154 708.0655 2904.2778 0.0000 -171050.0648 15018.6535 384.1998 0.0000 0.0000 -151905.1528 0.0000 -151905.1528 -151905.1528 0.0000 13092.9130 -4843.6318 534946.2959 13092.9130 -4843.6318
TCL: Setting parameter constraintScaling to 5.0
TCL: Minimizing for 100 steps
ETITLE: TS BOND ANGLE DIHED IMPRP ELECT VDW BOUNDARY MISC KINETIC TOTAL TEMP POTENTIAL TOTAL3 TEMPAVG PRESSURE GPRESSURE VOLUME PRESSAVG GPRESSAVG
ENERGY: 100 129.7154 708.0655 2904.2778 0.0000 -171050.0648 15018.6535 192.0999 0.0000 0.0000 -152097.2527 0.0000 -152097.2527 -152097.2527 0.0000 13703.5081 -22944.4542 534946.2959 13703.5081 -22944.4542
ENERGY: 120 118.6826 680.2878 2909.9065 0.0000 -172396.3163 14830.1204 259.9550 0.0000 0.0000 -153597.3639 0.0000 -153597.3639 -153597.3639 0.0000 13320.9468 -4756.3080 534946.2959 13320.9468 -4756.3080
ENERGY: 140 109.1497 671.1475 2912.0863 0.0000 -174830.2600 14716.1439 337.7306 0.0000 0.0000 -156084.0020 0.0000 -156084.0020 -156084.0020 0.0000 12908.9583 -5423.1472 534946.2959 12908.9583 -5423.1472
ENERGY: 160 125.8524 667.1486 2914.1927 0.0000 -175967.0383 14735.1336 362.9185 0.0000 0.0000 -157161.7924 0.0000 -157161.7924 -157161.7924 0.0000 12806.8984 -5644.7914 534946.2959 12806.8984 -5644.7914
ENERGY: 180 303.5337 659.6774 2917.2963 0.0000 -177408.6176 14815.0077 395.3807 0.0000 0.0000 -158317.7219 0.0000 -158317.7219 -158317.7219 0.0000 12699.3200 -5901.8496 534946.2959 12699.3200 -5901.8496
ENERGY: 200 109.2143 628.4895 2923.3606 0.0000 -179544.4999 15071.2649 441.9003 0.0000 0.0000 -160370.2703 0.0000 -160370.2703 -160370.2703 0.0000 12659.9886 -6151.9891 534946.2959 12659.9886 -6151.9891
TCL: Setting parameter constraintScaling to 2.5
TCL: Minimizing for 100 steps
ETITLE: TS BOND ANGLE DIHED IMPRP ELECT VDW BOUNDARY MISC KINETIC TOTAL TEMP POTENTIAL TOTAL3 TEMPAVG PRESSURE GPRESSURE VOLUME PRESSAVG GPRESSAVG
ENERGY: 200 109.2143 628.4895 2923.3606 0.0000 -179544.4999 15071.2649 220.9501 0.0000 0.0000 -160591.2205 0.0000 -160591.2205 -160591.2205 0.0000 13208.4253 -25271.1935 534946.2959 13208.4253 -25271.1935
ENERGY: 220 169.2426 639.7461 2924.9634 0.0000 -180454.1089 15113.9923 291.3141 0.0000 0.0000 -161314.8504 0.0000 -161314.8504 -161314.8504 0.0000 13002.3029 -5914.7791 534946.2959 13002.3029 -5914.7791
ENERGY: 240 251.9371 643.1538 2921.3965 0.0000 -181894.6629 15359.0467 339.5472 0.0000 0.0000 -162379.5817 0.0000 -162379.5817 -162379.5817 0.0000 12964.1522 -6107.7985 534946.2959 12964.1522 -6107.7985
ENERGY: 260 173.9996 639.0103 2923.9278 0.0000 -184191.7124 15911.0606 438.0429 0.0000 0.0000 -164105.6712 0.0000 -164105.6712 -164105.6712 0.0000 13009.6589 -6306.7174 534946.2959 13009.6589 -6306.7174
ENERGY: 280 330.4532 683.9338 2917.5686 0.0000 -184868.9920 16116.2014 429.0081 0.0000 0.0000 -164391.8271 0.0000 -164391.8271 -164391.8271 0.0000 13134.7285 -6272.0490 534946.2959 13134.7285 -6272.0490
ENERGY: 300 138.7235 659.5972 2924.8010 0.0000 -186086.1951 16506.8815 425.6735 0.0000 0.0000 -165430.5183 0.0000 -165430.5183 -165430.5183 0.0000 13325.7163 -6209.9369 534946.2959 13325.7163 -6209.9369
TCL: Setting parameter constraintScaling to 1.25
TCL: Minimizing for 100 steps
ETITLE: TS BOND ANGLE DIHED IMPRP ELECT VDW BOUNDARY MISC KINETIC TOTAL TEMP POTENTIAL TOTAL3 TEMPAVG PRESSURE GPRESSURE VOLUME PRESSAVG GPRESSAVG
ENERGY: 300 138.7235 659.5972 2924.8010 0.0000 -186086.1951 16506.8815 212.8368 0.0000 0.0000 -165643.3551 0.0000 -165643.3551 -165643.3551 0.0000 13738.4966 -26257.4372 534946.2959 13738.4966 -26257.4372
ENERGY: 320 170.1465 647.9554 2909.7187 0.0000 -186988.6617 16714.0583 276.8279 0.0000 0.0000 -166269.9549 0.0000 -166269.9549 -166269.9549 0.0000 13702.9947 -5945.8872 534946.2959 13702.9947 -5945.8872
ENERGY: 340 227.5224 705.7193 2911.3662 0.0000 -188421.1953 17135.5133 358.5540 0.0000 0.0000 -167082.5202 0.0000 -167082.5202 -167082.5202 0.0000 13706.8505 -6081.0249 534946.2959 13706.8505 -6081.0249
ENERGY: 360 141.7982 647.5187 2903.8482 0.0000 -188608.4024 17212.4855 350.0320 0.0000 0.0000 -167352.7198 0.0000 -167352.7198 -167352.7198 0.0000 13793.7328 -6022.9096 534946.2959 13793.7328 -6022.9096
ENERGY: 380 153.9667 645.6846 2904.1190 0.0000 -189865.4809 17680.0389 347.0783 0.0000 0.0000 -168134.5935 0.0000 -168134.5935 -168134.5935 0.0000 14057.4937 -5923.3130 534946.2959 14057.4937 -5923.3130
ENERGY: 400 224.1211 691.6285 2907.8893 0.0000 -192163.6719 18645.6036 389.8208 0.0000 0.0000 -169304.6085 0.0000 -169304.6085 -169304.6085 0.0000 14447.6947 -5780.2152 534946.2959 14447.6947 -5780.2152
TCL: Setting parameter constraintScaling to 0.625
TCL: Minimizing for 100 steps
ETITLE: TS BOND ANGLE DIHED IMPRP ELECT VDW BOUNDARY MISC KINETIC TOTAL TEMP POTENTIAL TOTAL3 TEMPAVG PRESSURE GPRESSURE VOLUME PRESSAVG GPRESSAVG
ENERGY: 400 224.1211 691.6285 2907.8893 0.0000 -192163.6719 18645.6036 194.9104 0.0000 0.0000 -169499.5189 0.0000 -169499.5189 -169499.5189 0.0000 14744.6149 -26698.5592 534946.2959 14744.6149 -26698.5592
ENERGY: 420 153.0868 642.3269 2888.9532 0.0000 -192421.5365 18677.3417 219.9265 0.0000 0.0000 -169839.9014 0.0000 -169839.9014 -169839.9014 0.0000 14736.2181 -5523.0512 534946.2959 14736.2181 -5523.0512
ENERGY: 440 276.4939 725.2610 2897.7225 0.0000 -193325.2544 18932.8345 276.3392 0.0000 0.0000 -170216.6034 0.0000 -170216.6034 -170216.6034 0.0000 14685.4231 -5642.9436 534946.2959 14685.4231 -5642.9436
ENERGY: 460 209.3719 691.7631 2884.6768 0.0000 -193297.0840 18937.2606 264.5805 0.0000 0.0000 -170309.4311 0.0000 -170309.4311 -170309.4311 0.0000 14760.5493 -5601.3433 534946.2959 14760.5493 -5601.3433
ENERGY: 480 377.0519 714.7660 2892.6193 0.0000 -194305.9364 19356.5814 274.1724 0.0000 0.0000 -170690.7454 0.0000 -170690.7454 -170690.7454 0.0000 14969.6233 -5515.1239 534946.2959 14969.6233 -5515.1239
ENERGY: 500 157.0874 639.2535 2882.9680 0.0000 -195236.2245 19686.5541 307.1346 0.0000 0.0000 -171563.2270 0.0000 -171563.2270 -171563.2270 0.0000 15082.2081 -5477.8967 534946.2959 15082.2081 -5477.8967
TCL: Setting parameter constraintScaling to 0.3125
TCL: Minimizing for 100 steps
ETITLE: TS BOND ANGLE DIHED IMPRP ELECT VDW BOUNDARY MISC KINETIC TOTAL TEMP POTENTIAL TOTAL3 TEMPAVG PRESSURE GPRESSURE VOLUME PRESSAVG GPRESSAVG
ENERGY: 500 157.0874 639.2535 2882.9680 0.0000 -195236.2245 19686.5541 153.5673 0.0000 0.0000 -171716.7943 0.0000 -171716.7943 -171716.7943 0.0000 15277.0339 -26876.3207 534946.2959 15277.0339 -26876.3207
ENERGY: 520 155.1630 645.3016 2874.8586 0.0000 -195616.8292 19805.4447 168.7913 0.0000 0.0000 -171967.2700 0.0000 -171967.2700 -171967.2700 0.0000 15284.6775 -5323.7854 534946.2959 15284.6775 -5323.7854
ENERGY: 540 204.3668 689.2352 2878.2796 0.0000 -196458.3505 20091.7872 204.0537 0.0000 0.0000 -172390.6280 0.0000 -172390.6280 -172390.6280 0.0000 15348.7552 -5343.5221 534946.2959 15348.7552 -5343.5221
ENERGY: 560 159.3493 653.9320 2872.0049 0.0000 -196543.1504 20122.6617 200.7823 0.0000 0.0000 -172534.4201 0.0000 -172534.4201 -172534.4201 0.0000 15356.3259 -5352.4243 534946.2959 15356.3259 -5352.4243
ENERGY: 580 247.8217 669.1894 2877.6803 0.0000 -197119.7773 20364.5971 197.4195 0.0000 0.0000 -172763.0694 0.0000 -172763.0694 -172763.0694 0.0000 15568.2542 -5228.1514 534946.2959 15568.2542 -5228.1514
ENERGY: 600 211.9630 701.7298 2887.4155 0.0000 -198159.1194 20787.2031 219.4798 0.0000 0.0000 -173351.3282 0.0000 -173351.3282 -173351.3282 0.0000 15686.6380 -5211.2517 534946.2959 15686.6380 -5211.2517
TCL: Setting parameter constraintScaling to 0.15625
TCL: Minimizing for 100 steps
ETITLE: TS BOND ANGLE DIHED IMPRP ELECT VDW BOUNDARY MISC KINETIC TOTAL TEMP POTENTIAL TOTAL3 TEMPAVG PRESSURE GPRESSURE VOLUME PRESSAVG GPRESSAVG
ENERGY: 600 211.9630 701.7298 2887.4155 0.0000 -198159.1194 20787.2031 109.7399 0.0000 0.0000 -173461.0681 0.0000 -173461.0681 -173461.0681 0.0000 15808.7033 -27037.8836 534946.2959 15808.7033 -27037.8836
ENERGY: 620 146.5169 639.7345 2863.5647 0.0000 -198250.7557 20799.0372 111.1720 0.0000 0.0000 -173690.7304 0.0000 -173690.7304 -173690.7304 0.0000 15871.7564 -5041.2237 534946.2959 15871.7564 -5041.2237
ENERGY: 640 161.5784 670.0071 2857.3954 0.0000 -198673.5361 20932.2190 125.0870 0.0000 0.0000 -173927.2493 0.0000 -173927.2493 -173927.2493 0.0000 15852.6304 -5109.1362 534946.2959 15852.6304 -5109.1362
ENERGY: 660 197.2956 693.6159 2862.2550 0.0000 -199254.1265 21135.5354 142.3780 0.0000 0.0000 -174223.0466 0.0000 -174223.0466 -174223.0466 0.0000 15875.4348 -5130.5426 534946.2959 15875.4348 -5130.5426
ENERGY: 680 170.7552 668.3771 2851.0968 0.0000 -199837.9360 21336.2402 148.3354 0.0000 0.0000 -174663.1313 0.0000 -174663.1313 -174663.1313 0.0000 16003.1144 -5086.8522 534946.2959 16003.1144 -5086.8522
ENERGY: 700 153.7719 671.7393 2851.0351 0.0000 -200208.1236 21514.1005 144.3042 0.0000 0.0000 -174873.1725 0.0000 -174873.1725 -174873.1725 0.0000 16166.2450 -4984.3225 534946.2959 16166.2450 -4984.3225
TCL: Setting parameter constraintScaling to 0.078125
TCL: Minimizing for 100 steps
ETITLE: TS BOND ANGLE DIHED IMPRP ELECT VDW BOUNDARY MISC KINETIC TOTAL TEMP POTENTIAL TOTAL3 TEMPAVG PRESSURE GPRESSURE VOLUME PRESSAVG GPRESSAVG
ENERGY: 700 153.7719 671.7393 2851.0351 0.0000 -200208.1236 21514.1005 72.1521 0.0000 0.0000 -174945.3247 0.0000 -174945.3247 -174945.3247 0.0000 16237.4488 -27100.6021 534946.2959 16237.4488 -27100.6021
ENERGY: 720 317.7656 851.4947 2868.8266 0.0000 -200601.4128 21620.7179 79.7529 0.0000 0.0000 -174862.8550 0.0000 -174862.8550 -174862.8550 0.0000 16245.1432 -4986.8810 534946.2959 16245.1432 -4986.8810
ENERGY: 740 171.4532 658.8901 2841.8908 0.0000 -200761.1274 21673.6767 80.5601 0.0000 0.0000 -175334.6564 0.0000 -175334.6564 -175334.6564 0.0000 16247.4833 -4952.6051 534946.2959 16247.4833 -4952.6051
ENERGY: 760 185.4195 672.3920 2840.3443 0.0000 -201265.2752 21892.1001 84.4729 0.0000 0.0000 -175590.5464 0.0000 -175590.5464 -175590.5464 0.0000 16362.3661 -4891.8345 534946.2959 16362.3661 -4891.8345
ENERGY: 780 158.3516 652.3068 2835.3680 0.0000 -201476.8137 21954.8306 86.5469 0.0000 0.0000 -175789.4098 0.0000 -175789.4098 -175789.4098 0.0000 16400.8085 -4881.3049 534946.2959 16400.8085 -4881.3049
ENERGY: 800 208.5440 718.3221 2840.2304 0.0000 -201906.8864 22120.7158 90.4220 0.0000 0.0000 -175928.6519 0.0000 -175928.6519 -175928.6519 0.0000 16475.8070 -4868.9215 534946.2959 16475.8070 -4868.9215
TCL: Setting parameter constraintScaling to 0.0390625
TCL: Minimizing for 100 steps
ETITLE: TS BOND ANGLE DIHED IMPRP ELECT VDW BOUNDARY MISC KINETIC TOTAL TEMP POTENTIAL TOTAL3 TEMPAVG PRESSURE GPRESSURE VOLUME PRESSAVG GPRESSAVG
ENERGY: 800 208.5440 718.3221 2840.2304 0.0000 -201906.8864 22120.7158 45.2110 0.0000 0.0000 -175973.8630 0.0000 -175973.8630 -175973.8630 0.0000 16516.2556 -27227.8899 534946.2959 16516.2556 -27227.8899
ENERGY: 820 160.2393 647.6202 2831.3409 0.0000 -202048.7253 22182.8914 45.5846 0.0000 0.0000 -176181.0489 0.0000 -176181.0489 -176181.0489 0.0000 16558.7092 -4792.1187 534946.2959 16558.7092 -4792.1187
ENERGY: 840 177.6156 668.0002 2830.0650 0.0000 -202259.0847 22278.7381 46.8543 0.0000 0.0000 -176257.8115 0.0000 -176257.8115 -176257.8115 0.0000 16626.1121 -4762.9606 534946.2959 16626.1121 -4762.9606
ENERGY: 860 318.4749 699.1624 2831.1385 0.0000 -202692.7066 22430.5227 49.2496 0.0000 0.0000 -176364.1584 0.0000 -176364.1584 -176364.1584 0.0000 16666.7268 -4769.9677 534946.2959 16666.7268 -4769.9677
ENERGY: 880 170.7158 664.5365 2828.3494 0.0000 -202934.5120 22527.7002 50.4529 0.0000 0.0000 -176692.7571 0.0000 -176692.7571 -176692.7571 0.0000 16713.4147 -4749.3805 534946.2959 16713.4147 -4749.3805
ENERGY: 900 161.4835 651.4750 2822.6142 0.0000 -203649.2877 22836.6990 53.9196 0.0000 0.0000 -177123.0965 0.0000 -177123.0965 -177123.0965 0.0000 16885.5871 -4660.8785 534946.2959 16885.5871 -4660.8785
TCL: Setting parameter constraintScaling to 0.01953125
TCL: Minimizing for 100 steps
ETITLE: TS BOND ANGLE DIHED IMPRP ELECT VDW BOUNDARY MISC KINETIC TOTAL TEMP POTENTIAL TOTAL3 TEMPAVG PRESSURE GPRESSURE VOLUME PRESSAVG GPRESSAVG
ENERGY: 900 161.4835 651.4750 2822.6142 0.0000 -203649.2877 22836.6990 26.9598 0.0000 0.0000 -177150.0563 0.0000 -177150.0563 -177150.0563 0.0000 16908.4317 -27251.1074 534946.2959 16908.4317 -27251.1074
ENERGY: 920 163.5737 652.1411 2817.6242 0.0000 -203938.1073 22970.3796 28.0485 0.0000 0.0000 -177306.3402 0.0000 -177306.3402 -177306.3402 0.0000 16963.2849 -4609.5469 534946.2959 16963.2849 -4609.5469
ENERGY: 940 226.3731 666.2138 2818.3849 0.0000 -204490.9426 23193.6731 29.6038 0.0000 0.0000 -177556.6938 0.0000 -177556.6938 -177556.6938 0.0000 17062.0740 -4582.0546 534946.2959 17062.0740 -4582.0546
ENERGY: 960 190.8053 671.6301 2814.1042 0.0000 -204864.6532 23373.1781 30.7682 0.0000 0.0000 -177784.1671 0.0000 -177784.1671 -177784.1671 0.0000 17173.3573 -4509.4125 534946.2959 17173.3573 -4509.4125
ENERGY: 980 175.8922 678.2788 2815.3669 0.0000 -205231.8689 23569.5221 31.9826 0.0000 0.0000 -177960.8263 0.0000 -177960.8263 -177960.8263 0.0000 17281.1026 -4447.5764 534946.2959 17281.1026 -4447.5764
ENERGY: 1000 190.7560 669.5985 2811.1626 0.0000 -205320.7156 23559.5084 32.1384 0.0000 0.0000 -178057.5517 0.0000 -178057.5517 -178057.5517 0.0000 17251.0034 -4482.9062 534946.2959 17251.0034 -4482.9062
TCL: Setting parameter constraintScaling to 0
TCL: Minimizing for 5000 steps
ETITLE: TS BOND ANGLE DIHED IMPRP ELECT VDW BOUNDARY MISC KINETIC TOTAL TEMP POTENTIAL TOTAL3 TEMPAVG PRESSURE GPRESSURE VOLUME PRESSAVG GPRESSAVG
ENERGY: 1000 190.7560 669.5985 2811.1626 0.0000 -205320.7156 23559.5084 0.0000 0.0000 0.0000 -178089.6901 0.0000 -178089.6901 -178089.6901 0.0000 17276.6574 -27278.7934 534946.2959 17276.6574 -27278.7934
ENERGY: 2000 166.6910 661.3067 2798.3644 0.0000 -214949.0137 27794.0470 0.0000 0.0000 0.0000 -183528.6045 0.0000 -183528.6045 -183528.6045 0.0000 19529.6648 -3296.2541 534946.2959 19529.6648 -3296.2541
ENERGY: 3000 165.8780 664.9179 2795.8846 0.0000 -217678.3866 28942.2012 0.0000 0.0000 0.0000 -185109.5050 0.0000 -185109.5050 -185109.5050 0.0000 20143.0931 -2975.4091 534946.2959 20143.0931 -2975.4091
ENERGY: 4000 165.0349 662.1330 2786.8506 0.0000 -218980.5672 29499.9466 0.0000 0.0000 0.0000 -185866.6022 0.0000 -185866.6022 -185866.6022 0.0000 20441.7612 -2813.3678 534946.2959 20441.7612 -2813.3678
ENERGY: 5000 166.3277 664.4078 2786.0552 0.0000 -219573.5932 29717.0714 0.0000 0.0000 0.0000 -186239.7311 0.0000 -186239.7311 -186239.7311 0.0000 20547.4772 -2755.2050 534946.2959 20547.4772 -2755.2050
ENERGY: 6000 165.7556 664.9040 2784.0918 0.0000 -219951.4093 29849.6708 0.0000 0.0000 0.0000 -186486.9870 0.0000 -186486.9870 -186486.9870 0.0000 20620.1818 -2733.7719 534946.2959 20620.1818 -2733.7719
