Info: SIMULATION PARAMETERS:
Info: TIMESTEP               2
Info: NUMBER OF STEPS        0
Info: STEPS PER CYCLE        10
Info: PERIODIC CELL BASIS 1  72.449 0 0
Info: PERIODIC CELL BASIS 2  0 93.247 0
Info: PERIODIC CELL BASIS 3  0 0 79.185
Info: PERIODIC CELL CENTER   -0.248 -0.156 -0.047
Info: WRAPPING WATERS AROUND PERIODIC BOUNDARIES ON OUTPUT.
Info: WRAPPING ALL CLUSTERS AROUND PERIODIC BOUNDARIES ON OUTPUT.
Info: FIRST LDB TIMESTEP     50
Info: LAST LDB TIMESTEP     -1
Info: HOM BACKGROUND SCALING 1
Info: PME BACKGROUND SCALING 1
Info: MIN ATOMS PER PATCH    40
Info: INITIAL TEMPERATURE    0
Info: CENTER OF MASS MOVING INITIALLY? NO
Info: DIELECTRIC             1
Info: EXCLUDE                SCALED ONE-FOUR
Info: 1-4 ELECTROSTATICS SCALED BY 0.833333
Info: MODIFIED 1-4 VDW PARAMETERS WILL BE USED
Info: NO DCD TRAJECTORY OUTPUT
Info: NO EXTENDED SYSTEM TRAJECTORY OUTPUT
Info: NO VELOCITY DCD OUTPUT
Info: NO FORCE DCD OUTPUT
Info: OUTPUT FILENAME        ../replicas/rep1/equilibration/eq0
Info: NO RESTART FILE
Info: SWITCHING ACTIVE
Info: SWITCHING ON           10
Info: SWITCHING OFF          12
Info: PAIRLIST DISTANCE      13.5
Info: PAIRLIST SHRINK RATE   0.01
Info: PAIRLIST GROW RATE     0.01
Info: PAIRLIST TRIGGER       0.3
Info: PAIRLISTS PER CYCLE    2
Info: PAIRLISTS ENABLED
Info: MARGIN                 0
Info: HYDROGEN GROUP CUTOFF  2.5
Info: PATCH DIMENSION        16
Info: ENERGY OUTPUT STEPS    500
Info: CROSSTERM ENERGY INCLUDED IN DIHEDRAL
Info: TIMING OUTPUT STEPS    5000
Info: PRESSURE OUTPUT STEPS  500
Info: HARMONIC CONSTRAINTS ACTIVE
Info: HARMONIC CONS EXP      2
Info: HARMONIC CONS SCALING  10
Info: CONJUGATE GRADIENT MINIMIZATION ACTIVE
Info: LINE MINIMIZATION GOAL = 0.001
Info: BABY STEP SIZE = 0.01
Info: TINY STEP SIZE = 1e-06
Info: PARTICLE MESH EWALD (PME) ACTIVE
Info: PME TOLERANCE               1e-06
Info: PME EWALD COEFFICIENT       0.257952
Info: PME INTERPOLATION ORDER     4
Info: PME GRID DIMENSIONS         80 96 80
Info: PME MAXIMUM GRID SPACING    1
Info: FULL ELECTROSTATIC EVALUATION FREQUENCY      2
Info: USING VERLET I (r-RESPA) MTS SCHEME.
Info: C1 SPLITTING OF LONG RANGE ELECTROSTATICS
Info: PLACING ATOMS IN PATCHES BY HYDROGEN GROUPS
Info: RIGID BONDS TO HYDROGEN : ALL
Info:         ERROR TOLERANCE : 1e-05
Info:          MAX ITERATIONS : 100
Info: RIGID WATER USING SETTLE ALGORITHM
Info: RANDOM NUMBER SEED     1503690981
Info: USE HYDROGEN BONDS?    NO
Info: Using AMBER format force field!
Info: AMBER PARM FILE        ../build/complex.top
Info: COORDINATE PDB         ../build/complex.pdb
Info: Exclusions in PARM file will be ignored!
Info: SCNB (VDW SCALING)     2
Info: USING ARITHMETIC MEAN TO COMBINE L-J SIGMA PARAMETERS
Info: SUMMARY OF PARAMETERS:
Info: 71 BONDS
Info: 145 ANGLES
Info: 76 DIHEDRAL
Info: 0 IMPROPER
Info: 0 CROSSTERM
Info: 0 VDW
Info: 190 VDW_PAIRS
Info: 0 NBTHOLE_PAIRS
Info: STRUCTURE SUMMARY:
Info: 49394 ATOMS
Info: 49448 BONDS
Info: 8698 ANGLES
Info: 18780 DIHEDRALS
Info: 0 IMPROPERS
Info: 0 CROSSTERMS
Info: 0 EXCLUSIONS
Info: 2336 CONSTRAINTS
Info: 47058 RIGID BONDS
Info: 101124 DEGREES OF FREEDOM
Info: 17225 HYDROGEN GROUPS
Info: 4 ATOMS IN LARGEST HYDROGEN GROUP
Info: 17225 MIGRATION GROUPS
Info: 4 ATOMS IN LARGEST MIGRATION GROUP
Info: TOTAL MASS = 301478 amu
Info: TOTAL CHARGE = 1.00115e-05 e
Info: MASS DENSITY = 0.935846 g/cm^3
Info: ATOM DENSITY = 0.0923345 atoms/A^3
Info: ADDED 70656 IMPLICIT EXCLUSIONS
Info: NONBONDED TABLE R-SQUARED SPACING: 0.0625
Info: NONBONDED TABLE SIZE: 769 POINTS
Info: REMOVING COM VELOCITY 0 0 0
TCL: Minimizing for 100 steps
ETITLE: TS BOND ANGLE DIHED IMPRP ELECT VDW BOUNDARY MISC KINETIC TOTAL TEMP POTENTIAL TOTAL3 TEMPAVG PRESSURE GPRESSURE VOLUME PRESSAVG GPRESSAVG
ENERGY: 0 155.4176 1012.2698 2855.7272 0.0000 -154496.7912 207729.2052 0.0468 0.0000 0.0000 57255.8754 0.0000 57255.8754 57255.8754 0.0000 116350.2532 86546.1670 534946.2959 116350.2532 86546.1670
ENERGY: 20 304.7550 935.7911 2893.4663 0.0000 -158672.9405 17936.6595 143.9454 0.0000 0.0000 -136458.3232 0.0000 -136458.3232 -136458.3232 0.0000 16523.9387 -239.4558 534946.2959 16523.9387 -239.4558
ENERGY: 40 198.7440 799.5727 2896.9273 0.0000 -162811.4534 16417.9536 221.3030 0.0000 0.0000 -142276.9528 0.0000 -142276.9528 -142276.9528 0.0000 15011.2702 -2135.4699 534946.2959 15011.2702 -2135.4699
ENERGY: 60 130.5283 715.3440 2898.2166 0.0000 -167496.1562 15446.7540 315.2796 0.0000 0.0000 -147990.0337 0.0000 -147990.0337 -147990.0337 0.0000 13793.8838 -3799.3985 534946.2959 13793.8838 -3799.3985
ENERGY: 80 431.2739 765.6309 2904.3785 0.0000 -169937.5305 15121.1522 372.0122 0.0000 0.0000 -150343.0827 0.0000 -150343.0827 -150343.0827 0.0000 13270.3306 -4577.2452 534946.2959 13270.3306 -4577.2452
ENERGY: 100 119.3865 710.0601 2905.2590 0.0000 -171259.7167 14991.7866 387.3613 0.0000 0.0000 -152145.8632 0.0000 -152145.8632 -152145.8632 0.0000 13056.2648 -4908.1734 534946.2959 13056.2648 -4908.1734
TCL: Setting parameter constraintScaling to 5.0
TCL: Minimizing for 100 steps
ETITLE: TS BOND ANGLE DIHED IMPRP ELECT VDW BOUNDARY MISC KINETIC TOTAL TEMP POTENTIAL TOTAL3 TEMPAVG PRESSURE GPRESSURE VOLUME PRESSAVG GPRESSAVG
ENERGY: 100 119.3865 710.0601 2905.2590 0.0000 -171259.7167 14991.7866 193.6807 0.0000 0.0000 -152339.5439 0.0000 -152339.5439 -152339.5439 0.0000 13672.7710 -23021.8198 534946.2959 13672.7710 -23021.8198
ENERGY: 120 108.8841 687.5845 2912.9267 0.0000 -172865.8784 14798.2709 281.1915 0.0000 0.0000 -154077.0207 0.0000 -154077.0207 -154077.0207 0.0000 13218.2557 -4906.0152 534946.2959 13218.2557 -4906.0152
ENERGY: 140 309.4419 708.8692 2913.8026 0.0000 -174236.6523 14731.4825 326.6389 0.0000 0.0000 -155246.4173 0.0000 -155246.4173 -155246.4173 0.0000 12971.5284 -5303.2393 534946.2959 12971.5284 -5303.2393
ENERGY: 160 265.1935 683.1019 2923.1715 0.0000 -176275.0270 14757.3177 382.8779 0.0000 0.0000 -157263.3645 0.0000 -157263.3645 -157263.3645 0.0000 12740.9982 -5742.3388 534946.2959 12740.9982 -5742.3388
ENERGY: 180 268.9192 744.0944 2928.5661 0.0000 -178995.1220 15023.4669 473.2876 0.0000 0.0000 -159556.7878 0.0000 -159556.7878 -159556.7878 0.0000 12521.6206 -6223.2725 534946.2959 12521.6206 -6223.2725
ENERGY: 200 238.8709 694.0939 2941.3609 0.0000 -181556.1123 15587.0152 546.2633 0.0000 0.0000 -161548.5082 0.0000 -161548.5082 -161548.5082 0.0000 12582.6426 -6422.4703 534946.2959 12582.6426 -6422.4703
TCL: Setting parameter constraintScaling to 2.5
TCL: Minimizing for 100 steps
ETITLE: TS BOND ANGLE DIHED IMPRP ELECT VDW BOUNDARY MISC KINETIC TOTAL TEMP POTENTIAL TOTAL3 TEMPAVG PRESSURE GPRESSURE VOLUME PRESSAVG GPRESSAVG
ENERGY: 200 238.8709 694.0939 2941.3609 0.0000 -181556.1123 15587.0152 273.1316 0.0000 0.0000 -161821.6398 0.0000 -161821.6398 -161821.6398 0.0000 13229.5462 -25653.2627 534946.2959 13229.5462 -25653.2627
ENERGY: 220 251.1273 679.9808 2933.0270 0.0000 -182082.9751 15470.8335 338.6131 0.0000 0.0000 -162409.3934 0.0000 -162409.3934 -162409.3934 0.0000 12967.7936 -6092.6938 534946.2959 12967.7936 -6092.6938
ENERGY: 240 139.2753 665.8177 2928.5995 0.0000 -182462.6082 15494.1789 343.6065 0.0000 0.0000 -162891.1303 0.0000 -162891.1303 -162891.1303 0.0000 13034.2700 -6105.5148 534946.2959 13034.2700 -6105.5148
ENERGY: 260 164.7257 683.7499 2921.6197 0.0000 -183940.9854 15800.2326 385.4367 0.0000 0.0000 -163985.2209 0.0000 -163985.2209 -163985.2209 0.0000 13031.8526 -6244.3864 534946.2959 13031.8526 -6244.3864
ENERGY: 280 169.0365 700.9145 2917.6061 0.0000 -185423.4376 16229.1755 454.8152 0.0000 0.0000 -164951.8898 0.0000 -164951.8898 -164951.8898 0.0000 13143.7039 -6336.3275 534946.2959 13143.7039 -6336.3275
ENERGY: 300 126.6719 639.5518 2916.2543 0.0000 -186095.5534 16446.2008 481.3786 0.0000 0.0000 -165485.4961 0.0000 -165485.4961 -165485.4961 0.0000 13207.9317 -6340.9739 534946.2959 13207.9317 -6340.9739
TCL: Setting parameter constraintScaling to 1.25
TCL: Minimizing for 100 steps
ETITLE: TS BOND ANGLE DIHED IMPRP ELECT VDW BOUNDARY MISC KINETIC TOTAL TEMP POTENTIAL TOTAL3 TEMPAVG PRESSURE GPRESSURE VOLUME PRESSAVG GPRESSAVG
ENERGY: 300 126.6719 639.5518 2916.2543 0.0000 -186095.5534 16446.2008 240.6893 0.0000 0.0000 -165726.1854 0.0000 -165726.1854 -165726.1854 0.0000 13656.2843 -26351.0577 534946.2959 13656.2843 -26351.0577
ENERGY: 320 132.0241 624.5846 2911.1539 0.0000 -186666.7634 16580.1841 272.7601 0.0000 0.0000 -166146.0565 0.0000 -166146.0565 -166146.0565 0.0000 13629.7709 -5972.4558 534946.2959 13629.7709 -5972.4558
ENERGY: 340 152.4948 625.3332 2910.7047 0.0000 -187382.5228 16812.9014 296.3122 0.0000 0.0000 -166584.7765 0.0000 -166584.7765 -166584.7765 0.0000 13647.1787 -6010.3170 534946.2959 13647.1787 -6010.3170
ENERGY: 360 170.3659 675.6064 2908.5150 0.0000 -188867.9321 17316.9449 356.8939 0.0000 0.0000 -167439.6061 0.0000 -167439.6061 -167439.6061 0.0000 13858.6566 -6006.1015 534946.2959 13858.6566 -6006.1015
ENERGY: 380 179.6139 659.0024 2901.8564 0.0000 -189880.9725 17713.9739 380.6913 0.0000 0.0000 -168045.8347 0.0000 -168045.8347 -168045.8347 0.0000 13968.3256 -5987.6316 534946.2959 13968.3256 -5987.6316
ENERGY: 400 138.8674 633.3512 2899.7621 0.0000 -190451.6535 17919.9744 394.1002 0.0000 0.0000 -168465.5981 0.0000 -168465.5981 -168465.5981 0.0000 14118.4952 -5922.2344 534946.2959 14118.4952 -5922.2344
TCL: Setting parameter constraintScaling to 0.625
TCL: Minimizing for 100 steps
ETITLE: TS BOND ANGLE DIHED IMPRP ELECT VDW BOUNDARY MISC KINETIC TOTAL TEMP POTENTIAL TOTAL3 TEMPAVG PRESSURE GPRESSURE VOLUME PRESSAVG GPRESSAVG
ENERGY: 400 138.8674 633.3512 2899.7621 0.0000 -190451.6535 17919.9744 197.0501 0.0000 0.0000 -168662.6483 0.0000 -168662.6483 -168662.6483 0.0000 14416.3970 -26608.7928 534946.2959 14416.3970 -26608.7928
ENERGY: 420 148.7051 627.0394 2895.4019 0.0000 -190858.4708 18014.4310 218.6906 0.0000 0.0000 -168954.2028 0.0000 -168954.2028 -168954.2028 0.0000 14348.8042 -5719.9439 534946.2959 14348.8042 -5719.9439
ENERGY: 440 144.8208 634.0696 2891.6632 0.0000 -191273.0446 18145.6984 229.2257 0.0000 0.0000 -169227.5669 0.0000 -169227.5669 -169227.5669 0.0000 14416.7814 -5709.3083 534946.2959 14416.7814 -5709.3083
ENERGY: 460 139.9731 649.0881 2888.8692 0.0000 -192238.1952 18472.6415 260.8079 0.0000 0.0000 -169826.8154 0.0000 -169826.8154 -169826.8154 0.0000 14545.9593 -5702.6957 534946.2959 14545.9593 -5702.6957
ENERGY: 480 154.6163 677.6895 2884.8009 0.0000 -193515.5930 18968.1781 296.6559 0.0000 0.0000 -170533.6522 0.0000 -170533.6522 -170533.6522 0.0000 14782.6156 -5630.9929 534946.2959 14782.6156 -5630.9929
ENERGY: 500 177.5836 638.5828 2882.9438 0.0000 -194085.2562 19192.2254 305.0817 0.0000 0.0000 -170888.8389 0.0000 -170888.8389 -170888.8389 0.0000 14774.9646 -5645.4181 534946.2959 14774.9646 -5645.4181
TCL: Setting parameter constraintScaling to 0.3125
TCL: Minimizing for 100 steps
ETITLE: TS BOND ANGLE DIHED IMPRP ELECT VDW BOUNDARY MISC KINETIC TOTAL TEMP POTENTIAL TOTAL3 TEMPAVG PRESSURE GPRESSURE VOLUME PRESSAVG GPRESSAVG
ENERGY: 500 177.5836 638.5828 2882.9438 0.0000 -194085.2562 19192.2254 152.5408 0.0000 0.0000 -171041.3797 0.0000 -171041.3797 -171041.3797 0.0000 14970.3608 -26909.3185 534946.2959 14970.3608 -26909.3185
ENERGY: 520 147.3176 651.9700 2877.1220 0.0000 -194278.3893 19254.6655 158.3671 0.0000 0.0000 -171188.9470 0.0000 -171188.9470 -171188.9470 0.0000 15062.6056 -5410.1444 534946.2959 15062.6056 -5410.1444
ENERGY: 540 387.4040 716.7930 2879.2079 0.0000 -195159.4867 19565.6135 185.5757 0.0000 0.0000 -171424.8926 0.0000 -171424.8926 -171424.8926 0.0000 15188.8207 -5398.7775 534946.2959 15188.8207 -5398.7775
ENERGY: 560 174.1433 647.8298 2871.3529 0.0000 -195905.1395 19851.7435 204.3959 0.0000 0.0000 -172155.6739 0.0000 -172155.6739 -172155.6739 0.0000 15200.9917 -5416.9541 534946.2959 15200.9917 -5416.9541
ENERGY: 580 301.2796 666.5367 2864.6701 0.0000 -196828.8548 20236.5995 223.1469 0.0000 0.0000 -172536.6220 0.0000 -172536.6220 -172536.6220 0.0000 15422.5565 -5330.2884 534946.2959 15422.5565 -5330.2884
ENERGY: 600 169.2680 661.6410 2869.1566 0.0000 -197032.4717 20304.4543 225.9309 0.0000 0.0000 -172802.0209 0.0000 -172802.0209 -172802.0209 0.0000 15402.8007 -5349.8094 534946.2959 15402.8007 -5349.8094
TCL: Setting parameter constraintScaling to 0.15625
TCL: Minimizing for 100 steps
ETITLE: TS BOND ANGLE DIHED IMPRP ELECT VDW BOUNDARY MISC KINETIC TOTAL TEMP POTENTIAL TOTAL3 TEMPAVG PRESSURE GPRESSURE VOLUME PRESSAVG GPRESSAVG
ENERGY: 600 169.2680 661.6410 2869.1566 0.0000 -197032.4717 20304.4543 112.9655 0.0000 0.0000 -172914.9864 0.0000 -172914.9864 -172914.9864 0.0000 15525.8372 -27049.5140 534946.2959 15525.8372 -27049.5140
ENERGY: 620 176.4609 651.8368 2860.9632 0.0000 -197298.0479 20405.1819 116.5382 0.0000 0.0000 -173087.0668 0.0000 -173087.0668 -173087.0668 0.0000 15583.0309 -5206.9049 534946.2959 15583.0309 -5206.9049
ENERGY: 640 173.9254 656.2621 2858.0440 0.0000 -197951.3516 20627.4119 127.2323 0.0000 0.0000 -173508.4759 0.0000 -173508.4759 -173508.4759 0.0000 15707.8760 -5173.3769 534946.2959 15707.8760 -5173.3769
ENERGY: 660 164.3160 648.8532 2852.6211 0.0000 -198309.7723 20765.6400 131.3104 0.0000 0.0000 -173747.0316 0.0000 -173747.0316 -173747.0316 0.0000 15764.7225 -5148.5705 534946.2959 15764.7225 -5148.5705
ENERGY: 680 273.9558 713.7830 2856.1226 0.0000 -199616.6314 21262.1383 146.9896 0.0000 0.0000 -174363.6421 0.0000 -174363.6421 -174363.6421 0.0000 15997.7975 -5078.5053 534946.2959 15997.7975 -5078.5053
ENERGY: 700 166.8959 648.9728 2845.4914 0.0000 -199573.1098 21242.1290 146.0900 0.0000 0.0000 -174523.5305 0.0000 -174523.5305 -174523.5305 0.0000 15988.2905 -5070.4330 534946.2959 15988.2905 -5070.4330
TCL: Setting parameter constraintScaling to 0.078125
TCL: Minimizing for 100 steps
ETITLE: TS BOND ANGLE DIHED IMPRP ELECT VDW BOUNDARY MISC KINETIC TOTAL TEMP POTENTIAL TOTAL3 TEMPAVG PRESSURE GPRESSURE VOLUME PRESSAVG GPRESSAVG
ENERGY: 700 166.8959 648.9728 2845.4914 0.0000 -199573.1098 21242.1290 73.0450 0.0000 0.0000 -174596.5756 0.0000 -174596.5756 -174596.5756 0.0000 16060.8285 -27121.1570 534946.2959 16060.8285 -27121.1570
ENERGY: 720 173.1751 652.0910 2845.2727 0.0000 -199818.7827 21323.6256 76.6154 0.0000 0.0000 -174748.0029 0.0000 -174748.0029 -174748.0029 0.0000 16078.1665 -5010.4621 534946.2959 16078.1665 -5010.4621
ENERGY: 740 160.4450 649.8166 2839.4944 0.0000 -200198.4822 21460.2477 80.8309 0.0000 0.0000 -175007.6477 0.0000 -175007.6477 -175007.6477 0.0000 16151.0259 -4988.4155 534946.2959 16151.0259 -4988.4155
ENERGY: 760 158.3597 650.7887 2839.7444 0.0000 -200593.6901 21602.0055 82.7116 0.0000 0.0000 -175260.0803 0.0000 -175260.0803 -175260.0803 0.0000 16244.1008 -4943.5263 534946.2959 16244.1008 -4943.5263
ENERGY: 780 168.0736 664.0641 2832.5062 0.0000 -201371.4495 21903.3293 90.9212 0.0000 0.0000 -175712.5552 0.0000 -175712.5552 -175712.5552 0.0000 16370.8356 -4909.3196 534946.2959 16370.8356 -4909.3196
ENERGY: 800 159.5853 651.2179 2827.7390 0.0000 -201793.0736 22082.8348 95.0720 0.0000 0.0000 -175976.6246 0.0000 -175976.6246 -175976.6246 0.0000 16452.5855 -4874.1697 534946.2959 16452.5855 -4874.1697
TCL: Setting parameter constraintScaling to 0.0390625
TCL: Minimizing for 100 steps
ETITLE: TS BOND ANGLE DIHED IMPRP ELECT VDW BOUNDARY MISC KINETIC TOTAL TEMP POTENTIAL TOTAL3 TEMPAVG PRESSURE GPRESSURE VOLUME PRESSAVG GPRESSAVG
ENERGY: 800 159.5853 651.2179 2827.7390 0.0000 -201793.0736 22082.8348 47.5360 0.0000 0.0000 -176024.1606 0.0000 -176024.1606 -176024.1606 0.0000 16494.8123 -27219.8525 534946.2959 16494.8123 -27219.8525
ENERGY: 820 162.2733 648.7199 2829.9536 0.0000 -201931.3211 22129.7233 47.9263 0.0000 0.0000 -176112.7246 0.0000 -176112.7246 -176112.7246 0.0000 16518.0515 -4823.7455 534946.2959 16518.0515 -4823.7455
ENERGY: 840 214.9387 658.8166 2827.8974 0.0000 -202255.5386 22254.8717 49.5469 0.0000 0.0000 -176249.4673 0.0000 -176249.4673 -176249.4673 0.0000 16554.4289 -4817.8073 534946.2959 16554.4289 -4817.8073
ENERGY: 860 160.7712 656.2432 2825.3013 0.0000 -202647.2957 22409.4360 51.7332 0.0000 0.0000 -176543.8108 0.0000 -176543.8108 -176543.8108 0.0000 16651.3356 -4773.0722 534946.2959 16651.3356 -4773.0722
ENERGY: 880 188.1440 664.7058 2822.3026 0.0000 -202952.6317 22536.2315 52.7529 0.0000 0.0000 -176688.4949 0.0000 -176688.4949 -176688.4949 0.0000 16729.0230 -4729.6413 534946.2959 16729.0230 -4729.6413
ENERGY: 900 164.8525 651.7701 2823.4518 0.0000 -203039.1669 22568.5787 53.4463 0.0000 0.0000 -176777.0676 0.0000 -176777.0676 -176777.0676 0.0000 16718.8920 -4747.0001 534946.2959 16718.8920 -4747.0001
TCL: Setting parameter constraintScaling to 0.01953125
TCL: Minimizing for 100 steps
ETITLE: TS BOND ANGLE DIHED IMPRP ELECT VDW BOUNDARY MISC KINETIC TOTAL TEMP POTENTIAL TOTAL3 TEMPAVG PRESSURE GPRESSURE VOLUME PRESSAVG GPRESSAVG
ENERGY: 900 164.8525 651.7701 2823.4518 0.0000 -203039.1669 22568.5787 26.7231 0.0000 0.0000 -176803.7907 0.0000 -176803.7907 -176803.7907 0.0000 16741.7205 -27268.3163 534946.2959 16741.7205 -27268.3163
ENERGY: 920 175.1137 651.3355 2819.7848 0.0000 -203253.4127 22655.0869 27.3884 0.0000 0.0000 -176924.7034 0.0000 -176924.7034 -176924.7034 0.0000 16793.9683 -4701.5984 534946.2959 16793.9683 -4701.5984
ENERGY: 940 160.8780 650.5258 2817.5749 0.0000 -203698.3076 22840.7905 28.7792 0.0000 0.0000 -177199.7593 0.0000 -177199.7593 -177199.7593 0.0000 16889.3229 -4657.8657 534946.2959 16889.3229 -4657.8657
ENERGY: 960 166.9536 655.6062 2816.7285 0.0000 -203878.3201 22919.3563 29.1160 0.0000 0.0000 -177290.5596 0.0000 -177290.5596 -177290.5596 0.0000 16939.9589 -4632.6857 534946.2959 16939.9589 -4632.6857
ENERGY: 980 306.7997 681.7246 2813.9210 0.0000 -204443.0415 23167.7585 30.7099 0.0000 0.0000 -177442.1278 0.0000 -177442.1278 -177442.1278 0.0000 17033.2053 -4604.7335 534946.2959 17033.2053 -4604.7335
ENERGY: 1000 163.9805 653.0986 2808.9635 0.0000 -204937.0465 23395.3737 32.3927 0.0000 0.0000 -177883.2375 0.0000 -177883.2375 -177883.2375 0.0000 17172.4016 -4520.3997 534946.2959 17172.4016 -4520.3997
TCL: Setting parameter constraintScaling to 0
TCL: Minimizing for 5000 steps
ETITLE: TS BOND ANGLE DIHED IMPRP ELECT VDW BOUNDARY MISC KINETIC TOTAL TEMP POTENTIAL TOTAL3 TEMPAVG PRESSURE GPRESSURE VOLUME PRESSAVG GPRESSAVG
ENERGY: 1000 163.9805 653.0986 2808.9635 0.0000 -204937.0465 23395.3737 0.0000 0.0000 0.0000 -177915.6302 0.0000 -177915.6302 -177915.6302 0.0000 17198.2997 -27267.1344 534946.2959 17198.2997 -27267.1344
ENERGY: 2000 179.3369 668.4020 2800.6510 0.0000 -214956.7799 27831.8958 0.0000 0.0000 0.0000 -183476.4942 0.0000 -183476.4942 -183476.4942 0.0000 19536.2907 -3287.5327 534946.2959 19536.2907 -3287.5327
ENERGY: 3000 168.9710 669.4520 2795.5325 0.0000 -217672.6784 28954.1265 0.0000 0.0000 0.0000 -185084.5964 0.0000 -185084.5964 -185084.5964 0.0000 20145.7354 -2965.7734 534946.2959 20145.7354 -2965.7734
ENERGY: 4000 166.7683 667.4442 2789.9290 0.0000 -218876.0882 29449.3909 0.0000 0.0000 0.0000 -185802.5558 0.0000 -185802.5558 -185802.5558 0.0000 20405.0774 -2826.4746 534946.2959 20405.0774 -2826.4746
ENERGY: 5000 165.6070 664.8852 2785.5725 0.0000 -219552.0351 29713.8987 0.0000 0.0000 0.0000 -186222.0717 0.0000 -186222.0717 -186222.0717 0.0000 20544.7177 -2747.4730 534946.2959 20544.7177 -2747.4730
ENERGY: 6000 165.2613 664.9247 2784.9308 0.0000 -219874.9377 29834.0446 0.0000 0.0000 0.0000 -186425.7762 0.0000 -186425.7762 -186425.7762 0.0000 20614.2164 -2718.3739 534946.2959 20614.2164 -2718.3739
