Info: SIMULATION PARAMETERS:
Info: TIMESTEP               1
Info: NUMBER OF STEPS        0
Info: STEPS PER CYCLE        10
Info: PERIODIC CELL BASIS 1  72.449 0 0
Info: PERIODIC CELL BASIS 2  0 93.247 0
Info: PERIODIC CELL BASIS 3  0 0 79.185
Info: PERIODIC CELL CENTER   -0.248 -0.156 -0.047
Info: WRAPPING WATERS AROUND PERIODIC BOUNDARIES ON OUTPUT.
Info: WRAPPING ALL CLUSTERS AROUND PERIODIC BOUNDARIES ON OUTPUT.
Info: FIRST LDB TIMESTEP     50
Info: LAST LDB TIMESTEP     -1
Info: HOM BACKGROUND SCALING 1
Info: PME BACKGROUND SCALING 1
Info: MIN ATOMS PER PATCH    40
Info: VELOCITY FILE          ../replicas/rep63/equilibration/eq1.vel
Info: CENTER OF MASS MOVING INITIALLY? NO
Info: DIELECTRIC             1
Info: EXCLUDE                SCALED ONE-FOUR
Info: 1-4 ELECTROSTATICS SCALED BY 0.833333
Info: MODIFIED 1-4 VDW PARAMETERS WILL BE USED
Info: DCD FILENAME           ../replicas/rep63/equilibration/eq2.dcd
Info: DCD FREQUENCY          5000
Info: DCD FIRST STEP         5000
Info: DCD FILE WILL CONTAIN UNIT CELL DATA
Info: XST FILENAME           ../replicas/rep63/equilibration/eq2.xst
Info: XST FREQUENCY          5000
Info: NO VELOCITY DCD OUTPUT
Info: NO FORCE DCD OUTPUT
Info: OUTPUT FILENAME        ../replicas/rep63/equilibration/eq2
Info: RESTART FILENAME       ../replicas/rep63/equilibration/eq2.restart
Info: RESTART FREQUENCY      5000
Info: BINARY RESTART FILES WILL BE USED
Info: SWITCHING ACTIVE
Info: SWITCHING ON           10
Info: SWITCHING OFF          12
Info: PAIRLIST DISTANCE      13.5
Info: PAIRLIST SHRINK RATE   0.01
Info: PAIRLIST GROW RATE     0.01
Info: PAIRLIST TRIGGER       0.3
Info: PAIRLISTS PER CYCLE    2
Info: PAIRLISTS ENABLED
Info: MARGIN                 0.48
Info: HYDROGEN GROUP CUTOFF  2.5
Info: PATCH DIMENSION        16.48
Info: ENERGY OUTPUT STEPS    500
Info: CROSSTERM ENERGY INCLUDED IN DIHEDRAL
Info: TIMING OUTPUT STEPS    5000
Info: PRESSURE OUTPUT STEPS  500
Info: HARMONIC CONSTRAINTS ACTIVE
Info: HARMONIC CONS EXP      2
Info: HARMONIC CONS SCALING  10
Info: LANGEVIN DYNAMICS ACTIVE
Info: LANGEVIN TEMPERATURE   300
Info: LANGEVIN USING BBK INTEGRATOR
Info: LANGEVIN DAMPING COEFFICIENT IS 5 INVERSE PS
Info: LANGEVIN DYNAMICS NOT APPLIED TO HYDROGENS
Info: BERENDSEN PRESSURE COUPLING ACTIVE
Info:     TARGET PRESSURE IS 1 BAR
Info:     COMPRESSIBILITY ESTIMATE IS 4.57e-05 BAR^(-1)
Info:     RELAXATION TIME IS 100 FS
Info:     APPLIED EVERY 2 STEPS
Info:     PRESSURE CONTROL IS GROUP-BASED
Info:       CELL FLUCTUATION IS ISOTROPIC
Info: PARTICLE MESH EWALD (PME) ACTIVE
Info: PME TOLERANCE               1e-06
Info: PME EWALD COEFFICIENT       0.257952
Info: PME INTERPOLATION ORDER     4
Info: PME GRID DIMENSIONS         80 96 80
Info: PME MAXIMUM GRID SPACING    1
Info: FULL ELECTROSTATIC EVALUATION FREQUENCY      2
Info: USING VERLET I (r-RESPA) MTS SCHEME.
Info: C1 SPLITTING OF LONG RANGE ELECTROSTATICS
Info: PLACING ATOMS IN PATCHES BY HYDROGEN GROUPS
Info: RIGID BONDS TO HYDROGEN : WATER
Info:         ERROR TOLERANCE : 1e-05
Info:          MAX ITERATIONS : 100
Info: RIGID WATER USING SETTLE ALGORITHM
Info: RANDOM NUMBER SEED     1503709150
Info: USE HYDROGEN BONDS?    NO
Info: Using AMBER format force field!
Info: AMBER PARM FILE        ../build/complex.top
Info: COORDINATE PDB         ../replicas/rep63/equilibration/eq1.coor
Info: Exclusions in PARM file will be ignored!
Info: SCNB (VDW SCALING)     2
Info: USING ARITHMETIC MEAN TO COMBINE L-J SIGMA PARAMETERS
Info: SUMMARY OF PARAMETERS:
Info: 71 BONDS
Info: 145 ANGLES
Info: 76 DIHEDRAL
Info: 0 IMPROPER
Info: 0 CROSSTERM
Info: 0 VDW
Info: 190 VDW_PAIRS
Info: 0 NBTHOLE_PAIRS
Info: STRUCTURE SUMMARY:
Info: 49394 ATOMS
Info: 49448 BONDS
Info: 8698 ANGLES
Info: 18780 DIHEDRALS
Info: 0 IMPROPERS
Info: 0 CROSSTERMS
Info: 0 EXCLUSIONS
Info: 2336 CONSTRAINTS
Info: 44667 RIGID BONDS
Info: 103515 DEGREES OF FREEDOM
Info: 17225 HYDROGEN GROUPS
Info: 4 ATOMS IN LARGEST HYDROGEN GROUP
Info: 17225 MIGRATION GROUPS
Info: 4 ATOMS IN LARGEST MIGRATION GROUP
Info: TOTAL MASS = 301478 amu
Info: TOTAL CHARGE = 1.00115e-05 e
Info: MASS DENSITY = 0.935846 g/cm^3
Info: ATOM DENSITY = 0.0923345 atoms/A^3
Info: ADDED 70656 IMPLICIT EXCLUSIONS
Info: NONBONDED TABLE R-SQUARED SPACING: 0.0625
Info: NONBONDED TABLE SIZE: 769 POINTS
Info: REMOVING COM VELOCITY -0.00277758 -0.00969402 -0.0226931
TCL: Running for 5000 steps
ETITLE: TS BOND ANGLE DIHED IMPRP ELECT VDW BOUNDARY MISC KINETIC TOTAL TEMP POTENTIAL TOTAL3 TEMPAVG PRESSURE GPRESSURE VOLUME PRESSAVG GPRESSAVG
ENERGY: 0 380.3214 1240.8746 2911.1239 0.0000 -212727.5685 29587.5860 0.0000 0.0000 10132.9767 -168474.6860 98.5199 -178607.6626 -168464.8661 98.5199 -2326.8726 -2427.2452 534946.2959 -2326.8726 -2427.2452
ENERGY: 1000 1244.7306 1984.3032 3110.2218 0.0000 -193736.8392 26600.6488 788.5130 0.0000 24040.8160 -135967.6057 233.7418 -160008.4217 -135934.5931 219.0576 -64.0250 -37.2970 522759.9016 -4.1259 -4.1046
ENERGY: 2000 1446.2315 2217.3778 3113.8717 0.0000 -184762.5255 23589.9518 776.7275 0.0000 28037.7395 -125580.6258 272.6027 -153618.3653 -125541.3448 264.7352 -39.2604 -19.4153 514621.0067 -39.6378 -39.9084
ENERGY: 3000 1498.8740 2235.7750 3126.2811 0.0000 -179309.4417 21770.0146 782.9534 0.0000 29591.8906 -120303.6532 287.7132 -149895.5438 -120265.7402 285.2598 -147.9155 23.0835 510711.5058 -4.3125 -3.8843
ENERGY: 4000 1534.9326 2253.2094 3135.1816 0.0000 -176468.9364 20512.0442 808.9414 0.0000 30110.3237 -118114.3035 292.7538 -148224.6272 -118071.2523 293.9473 -41.1729 -7.7501 507647.8312 -6.9056 -6.8747
ENERGY: 5000 1583.9486 2232.9708 3141.1705 0.0000 -175746.9020 20353.2590 797.2899 0.0000 30540.0950 -117098.1683 296.9323 -147638.2633 -117040.0506 297.4926 -54.9064 1.5327 506894.8656 -9.3465 -9.1599
TCL: Setting parameter constraintScaling to 5.0
TCL: Running for 5000 steps
ETITLE: TS BOND ANGLE DIHED IMPRP ELECT VDW BOUNDARY MISC KINETIC TOTAL TEMP POTENTIAL TOTAL3 TEMPAVG PRESSURE GPRESSURE VOLUME PRESSAVG GPRESSAVG
ENERGY: 5000 1583.9486 2232.9708 3141.1705 0.0000 -175746.9020 20353.2590 398.6450 0.0000 30538.0215 -117498.8867 296.9122 -148036.9082 -117455.1178 296.9122 -104.8176 -49.4577 506894.8656 -104.8176 -49.4577
ENERGY: 6000 1580.2474 2296.5525 3157.0937 0.0000 -175702.6165 20381.3780 631.8450 0.0000 30655.9011 -116999.5988 298.0583 -147655.4999 -116956.2874 298.6627 103.9987 14.2659 503069.2584 -11.8216 -12.4362
ENERGY: 7000 1548.8256 2377.6484 3189.9332 0.0000 -175800.0860 20285.6250 675.1693 0.0000 30741.6196 -116981.2648 298.8917 -147722.8844 -116933.3833 299.1640 -15.5118 57.4951 502645.5795 14.5758 14.5735
ENERGY: 8000 1646.4467 2315.7091 3163.1027 0.0000 -175633.2450 20279.3053 651.5533 0.0000 30616.0620 -116961.0660 297.6709 -147577.1280 -116907.1290 299.2199 -25.2124 17.5096 501508.3909 -3.8576 -4.0214
ENERGY: 9000 1589.9125 2327.1111 3152.0910 0.0000 -175728.6232 20264.3261 645.2176 0.0000 30763.9181 -116986.0467 299.1085 -147749.9648 -116940.1328 298.7993 34.5091 25.8381 504019.6357 11.6290 11.8476
ENERGY: 10000 1621.7149 2301.7231 3141.8445 0.0000 -175693.9780 20108.8420 660.8693 0.0000 30677.6989 -117181.2853 298.2702 -147858.9842 -117143.1608 298.5888 -11.9657 17.9150 502285.5156 -3.7213 -3.5959
TCL: Setting parameter constraintScaling to 2.5
TCL: Running for 5000 steps
ETITLE: TS BOND ANGLE DIHED IMPRP ELECT VDW BOUNDARY MISC KINETIC TOTAL TEMP POTENTIAL TOTAL3 TEMPAVG PRESSURE GPRESSURE VOLUME PRESSAVG GPRESSAVG
ENERGY: 10000 1621.7149 2301.7231 3141.8445 0.0000 -175693.9781 20108.8420 330.4346 0.0000 30675.6663 -117513.7526 298.2504 -148189.4189 -117471.4181 298.2504 -83.0233 -54.1906 502285.5156 -83.0233 -54.1906
ENERGY: 11000 1565.1295 2361.5962 3159.7958 0.0000 -175716.2762 20002.5011 510.5404 0.0000 30776.3343 -117340.3790 299.2292 -148116.7133 -117303.7222 298.8008 5.8399 -45.2423 499693.2237 -9.3555 -8.8279
ENERGY: 12000 1610.7153 2340.4996 3178.8809 0.0000 -175335.4799 20162.7425 522.5822 0.0000 30916.3802 -116603.6792 300.5908 -147520.0593 -116557.4913 300.5773 5.7172 -55.8309 500499.8816 0.3558 0.4568
ENERGY: 13000 1618.2509 2360.3689 3166.8423 0.0000 -175382.8096 20024.1666 521.6854 0.0000 30863.6861 -116827.8094 300.0785 -147691.4955 -116777.4371 300.4062 35.9463 15.8095 501218.2041 7.1673 7.1013
ENERGY: 14000 1662.3696 2284.3216 3162.4226 0.0000 -175287.8220 19865.6954 524.2658 0.0000 30830.2746 -116958.4724 299.7537 -147788.7470 -116910.2846 298.8678 41.2695 49.2944 500368.1944 7.3771 7.3689
ENERGY: 15000 1600.7899 2336.7044 3170.5335 0.0000 -175511.4015 19814.1253 525.8227 0.0000 30622.6500 -117440.7757 297.7350 -148063.4257 -117386.4986 298.4789 -28.7164 -78.3834 500183.3851 -2.7999 -2.7981
TCL: Setting parameter constraintScaling to 1.25
TCL: Running for 5000 steps
ETITLE: TS BOND ANGLE DIHED IMPRP ELECT VDW BOUNDARY MISC KINETIC TOTAL TEMP POTENTIAL TOTAL3 TEMPAVG PRESSURE GPRESSURE VOLUME PRESSAVG GPRESSAVG
ENERGY: 15000 1600.7899 2336.7044 3170.5335 0.0000 -175511.4015 19814.1253 262.9113 0.0000 30620.6297 -117705.7074 297.7153 -148326.3371 -117662.5258 297.7153 -103.9672 -144.2281 500183.3851 -103.9672 -144.2281
ENERGY: 16000 1660.3255 2406.6377 3169.9195 0.0000 -175727.3361 19995.1330 422.7379 0.0000 30645.4120 -117427.1706 297.9563 -148072.5826 -117384.2132 298.0993 -34.1255 19.1160 498104.2739 -7.8823 -8.3700
ENERGY: 17000 1627.2479 2350.4224 3191.9789 0.0000 -176210.6495 20282.0654 393.5112 0.0000 30683.8400 -117681.5837 298.3299 -148365.4237 -117637.9535 299.2949 -11.9181 10.7090 498039.8179 -2.4245 -2.6725
ENERGY: 18000 1641.7757 2351.7182 3190.7598 0.0000 -176201.5268 20476.2674 402.7828 0.0000 30742.9005 -117395.3224 298.9041 -148138.2229 -117352.2181 298.7239 5.9626 20.7685 500773.2640 1.8304 2.0219
ENERGY: 19000 1624.5451 2330.5161 3180.0205 0.0000 -176139.1502 20268.4455 396.9765 0.0000 30857.0482 -117481.5984 300.0140 -148338.6466 -117432.1930 298.7634 -65.2584 58.3512 500097.5192 -6.1114 -5.8674
ENERGY: 20000 1602.7058 2373.2669 3175.1526 0.0000 -175193.5329 20051.8688 396.0902 0.0000 30622.4497 -116971.9988 297.7330 -147594.4486 -116932.2963 300.0170 -28.1100 36.9541 498659.2310 1.0607 1.7061
TCL: Setting parameter constraintScaling to 0.625
TCL: Running for 5000 steps
ETITLE: TS BOND ANGLE DIHED IMPRP ELECT VDW BOUNDARY MISC KINETIC TOTAL TEMP POTENTIAL TOTAL3 TEMPAVG PRESSURE GPRESSURE VOLUME PRESSAVG GPRESSAVG
ENERGY: 20000 1602.7058 2373.2669 3175.1526 0.0000 -175193.5329 20051.8688 198.0451 0.0000 30620.4381 -117172.0556 297.7135 -147792.4937 -117129.2514 297.7135 -12.5748 48.5582 498659.2310 -12.5748 48.5582
ENERGY: 21000 1619.2001 2355.8705 3183.8472 0.0000 -175732.5349 20103.5107 316.9835 0.0000 30898.0694 -117255.0535 300.4128 -148153.1229 -117218.4009 299.5180 -42.9026 11.7467 498655.3566 -4.0496 -4.5101
ENERGY: 22000 1657.1818 2362.5258 3220.3951 0.0000 -175650.5128 20071.1737 334.7286 0.0000 30870.9267 -117133.5811 300.1489 -148004.5078 -117084.9385 299.9521 -119.9012 -86.8187 499341.5619 2.2959 1.9173
ENERGY: 23000 1594.3696 2389.1643 3199.0570 0.0000 -176060.5604 20239.3341 316.4274 0.0000 30798.4455 -117523.7626 299.4442 -148322.2080 -117475.9334 298.2956 -102.2899 -51.8260 498547.6620 -16.1338 -16.3185
ENERGY: 24000 1598.9870 2414.7539 3211.4940 0.0000 -175451.6447 19984.6129 312.4122 0.0000 30555.4744 -117373.9102 297.0819 -147929.3847 -117330.5763 298.8761 19.2213 -11.7269 500292.5660 11.1429 10.8795
ENERGY: 25000 1628.3707 2376.8026 3213.4641 0.0000 -175559.0784 19991.8150 319.8273 0.0000 30699.0489 -117329.7499 298.4778 -148028.7988 -117276.1251 299.6406 -133.6303 -24.0661 499602.5696 1.9422 2.1370
TCL: Setting parameter constraintScaling to 0.3125
TCL: Running for 5000 steps
ETITLE: TS BOND ANGLE DIHED IMPRP ELECT VDW BOUNDARY MISC KINETIC TOTAL TEMP POTENTIAL TOTAL3 TEMPAVG PRESSURE GPRESSURE VOLUME PRESSAVG GPRESSAVG
ENERGY: 25000 1628.3707 2376.8026 3213.4641 0.0000 -175559.0784 19991.8150 159.9136 0.0000 30696.9854 -117491.7270 298.4577 -148188.7124 -117446.2154 298.4577 -129.8684 -27.2219 499602.5696 -129.8684 -27.2219
ENERGY: 26000 1598.4044 2357.8183 3155.1766 0.0000 -176137.3357 20080.1975 243.3437 0.0000 30830.5733 -117871.8219 299.7566 -148702.3952 -117826.3891 298.2012 6.3519 23.7949 497297.7716 -17.7939 -17.6370
ENERGY: 27000 1602.9599 2378.3144 3203.1025 0.0000 -175939.6663 20011.0704 249.1842 0.0000 30896.9722 -117598.0627 300.4021 -148495.0349 -117551.5345 299.2299 56.9667 36.9978 496884.7102 -2.2292 -2.7943
ENERGY: 28000 1606.1858 2382.6355 3205.8850 0.0000 -175704.3587 20051.0468 252.8183 0.0000 30545.7785 -117660.0088 296.9876 -148205.7873 -117615.3948 300.0912 37.9363 56.3593 498550.3202 9.6437 9.7220
ENERGY: 29000 1629.1070 2454.6073 3211.6723 0.0000 -176003.7021 20300.4601 243.8611 0.0000 30886.8927 -117277.1017 300.3041 -148163.9944 -117238.4126 299.6652 -114.7434 -53.4430 498291.4241 -0.0782 0.3893
ENERGY: 30000 1624.9547 2369.2767 3238.1322 0.0000 -175764.4489 19993.7471 252.2647 0.0000 30784.7457 -117501.3278 299.3110 -148286.0735 -117456.6529 299.4367 1.8680 6.0170 499192.8907 6.7493 6.5540
TCL: Setting parameter constraintScaling to 0.15625
TCL: Running for 5000 steps
ETITLE: TS BOND ANGLE DIHED IMPRP ELECT VDW BOUNDARY MISC KINETIC TOTAL TEMP POTENTIAL TOTAL3 TEMPAVG PRESSURE GPRESSURE VOLUME PRESSAVG GPRESSAVG
ENERGY: 30000 1624.9547 2369.2767 3238.1322 0.0000 -175764.4489 19993.7471 126.1324 0.0000 30782.7380 -117629.4679 299.2915 -148412.2059 -117586.0591 299.2915 -23.3986 -17.8685 499192.8907 -23.3986 -17.8685
ENERGY: 31000 1602.4245 2435.3320 3204.2063 0.0000 -175694.9512 20006.1472 190.6506 0.0000 30802.5256 -117453.6650 299.4839 -148256.1906 -117409.0761 300.0879 -13.4759 45.0871 498984.2710 11.8225 11.9544
ENERGY: 32000 1706.2892 2405.4419 3216.3939 0.0000 -175869.3772 20018.2924 192.6644 0.0000 30990.6031 -117339.6924 301.3125 -148330.2954 -117301.8820 301.8566 -179.0072 -56.3470 498506.0304 -1.4486 -1.4866
ENERGY: 33000 1672.7857 2402.0978 3221.3897 0.0000 -175664.4503 19877.0346 202.0972 0.0000 30935.0891 -117353.9563 300.7727 -148289.0454 -117305.8041 299.7336 37.8197 24.5836 498366.6264 -4.0572 -3.6708
ENERGY: 34000 1583.4997 2418.0409 3199.1544 0.0000 -175718.0543 19997.4391 199.4324 0.0000 30784.3789 -117536.1088 299.3074 -148320.4878 -117488.5082 300.3327 58.3830 63.4847 497298.1546 5.4063 4.9559
ENERGY: 35000 1633.1334 2436.5101 3211.9365 0.0000 -175564.1093 19813.1389 201.7595 0.0000 30844.3961 -117423.2350 299.8910 -148267.6310 -117375.3595 299.9013 31.4778 22.7454 496890.5247 2.3363 1.9331
TCL: Setting parameter constraintScaling to 0.078125
TCL: Running for 5000 steps
ETITLE: TS BOND ANGLE DIHED IMPRP ELECT VDW BOUNDARY MISC KINETIC TOTAL TEMP POTENTIAL TOTAL3 TEMPAVG PRESSURE GPRESSURE VOLUME PRESSAVG GPRESSAVG
ENERGY: 35000 1633.1334 2436.5101 3211.9365 0.0000 -175564.1093 19813.1389 100.8797 0.0000 30842.3092 -117526.2015 299.8707 -148368.5108 -117481.8948 299.8707 12.3247 3.1253 496890.5247 12.3247 3.1253
ENERGY: 36000 1624.4061 2410.5324 3263.0547 0.0000 -175887.1663 19924.8413 142.0705 0.0000 30616.2168 -117906.0444 297.6724 -148522.2613 -117860.1547 299.5476 46.8952 74.6500 496371.6236 4.2377 3.9237
ENERGY: 37000 1639.1020 2426.6261 3227.8303 0.0000 -175775.5912 20003.4200 139.1807 0.0000 30856.3699 -117483.0623 300.0074 -148339.4321 -117429.9208 300.3690 7.5949 -4.7056 497756.3582 -7.3254 -7.7630
ENERGY: 38000 1605.1000 2416.9052 3257.9011 0.0000 -175599.6868 20097.1208 149.3839 0.0000 30811.6840 -117261.5918 299.5729 -148073.2758 -117208.7831 300.1278 135.2853 132.5599 497790.8634 7.3577 7.1432
ENERGY: 39000 1666.4861 2347.9645 3245.0154 0.0000 -175742.8375 20053.4471 158.6375 0.0000 30975.1430 -117296.1437 301.1622 -148271.2868 -117249.6291 300.5100 -134.4295 -91.3630 497657.9370 5.5509 5.6180
ENERGY: 40000 1633.0756 2419.6228 3232.4398 0.0000 -175820.7745 20052.9911 161.0009 0.0000 30707.4006 -117614.2437 298.5590 -148321.6443 -117571.4220 299.8587 -141.1187 20.7554 497210.8765 3.0291 3.0846
TCL: Setting parameter constraintScaling to 0.0390625
TCL: Running for 5000 steps
ETITLE: TS BOND ANGLE DIHED IMPRP ELECT VDW BOUNDARY MISC KINETIC TOTAL TEMP POTENTIAL TOTAL3 TEMPAVG PRESSURE GPRESSURE VOLUME PRESSAVG GPRESSAVG
ENERGY: 40000 1633.0756 2419.6228 3232.4398 0.0000 -175820.7745 20052.9911 80.5005 0.0000 30705.3665 -117696.7783 298.5392 -148402.1448 -117654.8319 298.5392 -149.0359 10.6477 497210.8765 -149.0359 10.6477
ENERGY: 41000 1606.1562 2430.3395 3237.1750 0.0000 -175970.5342 20230.7681 111.6762 0.0000 30735.4622 -117618.9570 298.8318 -148354.4191 -117584.5649 299.1884 80.0299 95.1421 497689.4766 5.4874 5.7397
ENERGY: 42000 1624.6601 2469.3043 3226.7621 0.0000 -175744.1226 19909.5901 106.7201 0.0000 30832.6626 -117574.4233 299.7769 -148407.0859 -117534.2153 299.8822 -1.3376 72.0287 496778.8128 -1.1400 -0.5112
ENERGY: 43000 1681.9808 2458.6479 3226.3669 0.0000 -175956.2977 20123.1785 117.3767 0.0000 30620.1694 -117728.5775 297.7109 -148348.7469 -117682.6722 300.0980 61.4351 39.6390 496616.1771 0.1138 0.4975
ENERGY: 44000 1632.2581 2430.8796 3206.9394 0.0000 -175548.1706 19880.8235 124.3853 0.0000 30888.3825 -117384.5022 300.3186 -148272.8847 -117350.2718 299.3325 -88.3535 -32.7375 497638.9654 -2.3992 -2.5968
ENERGY: 45000 1645.8967 2449.2852 3204.7812 0.0000 -175858.2784 20065.9994 124.6774 0.0000 30593.6793 -117773.9593 297.4533 -148367.6386 -117721.6806 299.7859 -131.0911 -63.0981 496628.3453 -12.4064 -12.4933
TCL: Setting parameter constraintScaling to 0.01953125
TCL: Running for 5000 steps
ETITLE: TS BOND ANGLE DIHED IMPRP ELECT VDW BOUNDARY MISC KINETIC TOTAL TEMP POTENTIAL TOTAL3 TEMPAVG PRESSURE GPRESSURE VOLUME PRESSAVG GPRESSAVG
ENERGY: 45000 1645.8967 2449.2852 3204.7812 0.0000 -175858.2784 20065.9994 62.3387 0.0000 30591.6228 -117838.3545 297.4333 -148429.9773 -117792.9920 297.4333 -118.2984 -54.8407 496628.3453 -118.2984 -54.8407
ENERGY: 46000 1651.4242 2464.0475 3182.1513 0.0000 -175798.7130 19997.4667 73.3387 0.0000 30960.0617 -117470.2229 301.0155 -148430.2847 -117411.7156 299.4641 -3.6739 30.7239 496112.9954 -2.2803 -2.0582
ENERGY: 47000 1667.1542 2377.7937 3214.8652 0.0000 -176110.0108 20240.6874 79.8672 0.0000 30722.7619 -117806.8811 298.7083 -148529.6430 -117759.5458 299.2103 -27.1720 24.9715 497381.0494 10.4229 10.8482
ENERGY: 48000 1648.8818 2391.6806 3212.4650 0.0000 -176430.5215 20286.5291 77.3535 0.0000 30892.3183 -117921.2932 300.3569 -148813.6115 -117880.2582 299.4848 -46.9571 3.1169 497348.5909 -14.7911 -14.8073
ENERGY: 49000 1613.5789 2418.2360 3221.1400 0.0000 -175935.1829 20101.5103 89.1110 0.0000 30530.6051 -117961.0016 296.8401 -148491.6066 -117926.6516 299.4258 148.1788 162.1009 497516.7910 1.8930 1.9539
ENERGY: 50000 1610.0069 2444.8754 3178.0731 0.0000 -175505.9074 19888.4310 89.3577 0.0000 30931.8625 -117363.3007 300.7414 -148295.1632 -117321.6534 299.9499 -16.6064 -47.4292 497920.4226 -1.2642 -1.5438
TCL: Setting parameter constraintScaling to 0
TCL: Running for 5000 steps
ETITLE: TS BOND ANGLE DIHED IMPRP ELECT VDW BOUNDARY MISC KINETIC TOTAL TEMP POTENTIAL TOTAL3 TEMPAVG PRESSURE GPRESSURE VOLUME PRESSAVG GPRESSAVG
ENERGY: 50000 1610.0069 2444.8754 3178.0731 0.0000 -175505.9074 19888.4310 0.0000 0.0000 30929.7998 -117454.7212 300.7213 -148384.5210 -117410.3438 300.7213 -25.0480 -51.5442 497920.4226 -25.0480 -51.5442
ENERGY: 51000 1585.5220 2399.3295 3182.1276 0.0000 -175671.2396 19830.4264 0.0000 0.0000 30942.6037 -117731.2305 300.8458 -148673.8342 -117679.7643 298.9027 -39.5917 -16.1095 497013.0430 -5.0116 -5.4783
ENERGY: 52000 1615.9245 2384.8854 3190.4847 0.0000 -175932.3678 19994.2796 0.0000 0.0000 30846.1160 -117900.6777 299.9077 -148746.7937 -117859.8353 299.1199 -68.4183 -30.2840 496559.6963 6.3461 6.6465
ENERGY: 53000 1578.1227 2387.4922 3203.1503 0.0000 -175650.6025 19877.0559 0.0000 0.0000 30947.4144 -117657.3670 300.8926 -148604.7814 -117601.1604 299.9407 18.3035 42.7779 496901.7398 0.5762 1.2019
ENERGY: 54000 1625.5339 2437.0064 3211.1438 0.0000 -175841.7062 20057.5868 0.0000 0.0000 30698.1190 -117812.3163 298.4687 -148510.4353 -117760.0495 299.6749 69.2386 121.6630 496317.1638 0.3200 -0.0310
ENERGY: 55000 1671.1597 2359.7950 3206.7132 0.0000 -176019.2753 20015.5990 0.0000 0.0000 30634.8420 -118131.1664 297.8535 -148766.0084 -118097.5200 298.4793 -136.0942 -86.5742 497325.3556 14.6685 13.8150
