Info: SIMULATION PARAMETERS:
Info: TIMESTEP               1
Info: NUMBER OF STEPS        0
Info: STEPS PER CYCLE        10
Info: PERIODIC CELL BASIS 1  72.449 0 0
Info: PERIODIC CELL BASIS 2  0 93.247 0
Info: PERIODIC CELL BASIS 3  0 0 79.185
Info: PERIODIC CELL CENTER   -0.248 -0.156 -0.047
Info: WRAPPING WATERS AROUND PERIODIC BOUNDARIES ON OUTPUT.
Info: WRAPPING ALL CLUSTERS AROUND PERIODIC BOUNDARIES ON OUTPUT.
Info: FIRST LDB TIMESTEP     50
Info: LAST LDB TIMESTEP     -1
Info: HOM BACKGROUND SCALING 1
Info: PME BACKGROUND SCALING 1
Info: MIN ATOMS PER PATCH    40
Info: VELOCITY FILE          ../replicas/rep66/equilibration/eq1.vel
Info: CENTER OF MASS MOVING INITIALLY? NO
Info: DIELECTRIC             1
Info: EXCLUDE                SCALED ONE-FOUR
Info: 1-4 ELECTROSTATICS SCALED BY 0.833333
Info: MODIFIED 1-4 VDW PARAMETERS WILL BE USED
Info: DCD FILENAME           ../replicas/rep66/equilibration/eq2.dcd
Info: DCD FREQUENCY          5000
Info: DCD FIRST STEP         5000
Info: DCD FILE WILL CONTAIN UNIT CELL DATA
Info: XST FILENAME           ../replicas/rep66/equilibration/eq2.xst
Info: XST FREQUENCY          5000
Info: NO VELOCITY DCD OUTPUT
Info: NO FORCE DCD OUTPUT
Info: OUTPUT FILENAME        ../replicas/rep66/equilibration/eq2
Info: RESTART FILENAME       ../replicas/rep66/equilibration/eq2.restart
Info: RESTART FREQUENCY      5000
Info: BINARY RESTART FILES WILL BE USED
Info: SWITCHING ACTIVE
Info: SWITCHING ON           10
Info: SWITCHING OFF          12
Info: PAIRLIST DISTANCE      13.5
Info: PAIRLIST SHRINK RATE   0.01
Info: PAIRLIST GROW RATE     0.01
Info: PAIRLIST TRIGGER       0.3
Info: PAIRLISTS PER CYCLE    2
Info: PAIRLISTS ENABLED
Info: MARGIN                 0.48
Info: HYDROGEN GROUP CUTOFF  2.5
Info: PATCH DIMENSION        16.48
Info: ENERGY OUTPUT STEPS    500
Info: CROSSTERM ENERGY INCLUDED IN DIHEDRAL
Info: TIMING OUTPUT STEPS    5000
Info: PRESSURE OUTPUT STEPS  500
Info: HARMONIC CONSTRAINTS ACTIVE
Info: HARMONIC CONS EXP      2
Info: HARMONIC CONS SCALING  10
Info: LANGEVIN DYNAMICS ACTIVE
Info: LANGEVIN TEMPERATURE   300
Info: LANGEVIN USING BBK INTEGRATOR
Info: LANGEVIN DAMPING COEFFICIENT IS 5 INVERSE PS
Info: LANGEVIN DYNAMICS NOT APPLIED TO HYDROGENS
Info: BERENDSEN PRESSURE COUPLING ACTIVE
Info:     TARGET PRESSURE IS 1 BAR
Info:     COMPRESSIBILITY ESTIMATE IS 4.57e-05 BAR^(-1)
Info:     RELAXATION TIME IS 100 FS
Info:     APPLIED EVERY 2 STEPS
Info:     PRESSURE CONTROL IS GROUP-BASED
Info:       CELL FLUCTUATION IS ISOTROPIC
Info: PARTICLE MESH EWALD (PME) ACTIVE
Info: PME TOLERANCE               1e-06
Info: PME EWALD COEFFICIENT       0.257952
Info: PME INTERPOLATION ORDER     4
Info: PME GRID DIMENSIONS         80 96 80
Info: PME MAXIMUM GRID SPACING    1
Info: FULL ELECTROSTATIC EVALUATION FREQUENCY      2
Info: USING VERLET I (r-RESPA) MTS SCHEME.
Info: C1 SPLITTING OF LONG RANGE ELECTROSTATICS
Info: PLACING ATOMS IN PATCHES BY HYDROGEN GROUPS
Info: RIGID BONDS TO HYDROGEN : WATER
Info:         ERROR TOLERANCE : 1e-05
Info:          MAX ITERATIONS : 100
Info: RIGID WATER USING SETTLE ALGORITHM
Info: RANDOM NUMBER SEED     1503715410
Info: USE HYDROGEN BONDS?    NO
Info: Using AMBER format force field!
Info: AMBER PARM FILE        ../build/complex.top
Info: COORDINATE PDB         ../replicas/rep66/equilibration/eq1.coor
Info: Exclusions in PARM file will be ignored!
Info: SCNB (VDW SCALING)     2
Info: USING ARITHMETIC MEAN TO COMBINE L-J SIGMA PARAMETERS
Info: SUMMARY OF PARAMETERS:
Info: 71 BONDS
Info: 145 ANGLES
Info: 76 DIHEDRAL
Info: 0 IMPROPER
Info: 0 CROSSTERM
Info: 0 VDW
Info: 190 VDW_PAIRS
Info: 0 NBTHOLE_PAIRS
Info: STRUCTURE SUMMARY:
Info: 49394 ATOMS
Info: 49448 BONDS
Info: 8698 ANGLES
Info: 18780 DIHEDRALS
Info: 0 IMPROPERS
Info: 0 CROSSTERMS
Info: 0 EXCLUSIONS
Info: 2336 CONSTRAINTS
Info: 44667 RIGID BONDS
Info: 103515 DEGREES OF FREEDOM
Info: 17225 HYDROGEN GROUPS
Info: 4 ATOMS IN LARGEST HYDROGEN GROUP
Info: 17225 MIGRATION GROUPS
Info: 4 ATOMS IN LARGEST MIGRATION GROUP
Info: TOTAL MASS = 301478 amu
Info: TOTAL CHARGE = 1.00115e-05 e
Info: MASS DENSITY = 0.935846 g/cm^3
Info: ATOM DENSITY = 0.0923345 atoms/A^3
Info: ADDED 70656 IMPLICIT EXCLUSIONS
Info: NONBONDED TABLE R-SQUARED SPACING: 0.0625
Info: NONBONDED TABLE SIZE: 769 POINTS
Info: REMOVING COM VELOCITY -0.0051097 -0.0293095 0.0105978
TCL: Running for 5000 steps
ETITLE: TS BOND ANGLE DIHED IMPRP ELECT VDW BOUNDARY MISC KINETIC TOTAL TEMP POTENTIAL TOTAL3 TEMPAVG PRESSURE GPRESSURE VOLUME PRESSAVG GPRESSAVG
ENERGY: 0 382.3316 1240.6800 2908.7220 0.0000 -212689.2737 29633.9949 0.0000 0.0000 10075.7243 -168447.8208 97.9633 -178523.5451 -168438.0653 97.9633 -2211.3864 -2309.7828 534946.2959 -2211.3864 -2309.7828
ENERGY: 1000 1255.7479 1982.5944 3105.4609 0.0000 -193407.3833 26332.6589 745.4705 0.0000 24044.9721 -135940.4787 233.7822 -159985.4508 -135908.3389 217.9045 -19.4830 -14.6976 521375.8779 -18.0886 -18.8883
ENERGY: 2000 1444.9938 2128.1948 3119.6983 0.0000 -183791.7097 23183.2229 801.3179 0.0000 27923.2557 -125191.0263 271.4896 -153114.2820 -125149.4305 264.4762 -154.1924 -42.1428 515606.2551 -19.4866 -18.8562
ENERGY: 3000 1580.2825 2230.5827 3137.4284 0.0000 -179461.0395 21773.3831 806.7368 0.0000 29404.9172 -120527.7088 285.8953 -149932.6260 -120486.7705 284.3121 -109.5201 -5.2800 510370.7857 -17.5960 -17.5784
ENERGY: 4000 1529.7249 2300.9843 3153.0589 0.0000 -177106.3307 20804.1451 816.3626 0.0000 30230.9509 -118271.1041 293.9266 -148502.0550 -118228.6451 292.7003 -62.4087 -16.0234 506171.5735 -16.5223 -16.3870
ENERGY: 5000 1542.3603 2223.6942 3166.3337 0.0000 -176193.3260 20444.8817 798.2325 0.0000 30365.7172 -117652.1065 295.2369 -148017.8237 -117610.8064 296.4389 -46.8377 20.5661 504294.1771 -3.7674 -3.9450
TCL: Setting parameter constraintScaling to 5.0
TCL: Running for 5000 steps
ETITLE: TS BOND ANGLE DIHED IMPRP ELECT VDW BOUNDARY MISC KINETIC TOTAL TEMP POTENTIAL TOTAL3 TEMPAVG PRESSURE GPRESSURE VOLUME PRESSAVG GPRESSAVG
ENERGY: 5000 1542.3603 2223.6942 3166.3337 0.0000 -176193.3260 20444.8817 399.1162 0.0000 30363.6906 -118053.2493 295.2172 -148416.9399 -118005.8907 295.2172 -73.5118 -9.7394 504294.1771 -73.5118 -9.7394
ENERGY: 6000 1608.3121 2273.2158 3157.9823 0.0000 -175732.8228 20201.9091 645.5246 0.0000 30924.7130 -116921.1660 300.6719 -147845.8790 -116876.8133 297.7388 -22.4409 -15.5528 503229.6485 -6.9243 -6.9445
ENERGY: 7000 1618.3345 2342.3955 3185.1962 0.0000 -175774.6258 20385.0726 647.7013 0.0000 30618.5961 -116977.3295 297.6956 -147595.9257 -116928.8632 298.9511 49.2717 31.7979 502949.2797 1.9658 1.6454
ENERGY: 8000 1662.6763 2250.2468 3167.4136 0.0000 -175550.4252 20103.5685 652.2297 0.0000 30736.7992 -116977.4912 298.8448 -147714.2904 -116936.0353 299.5026 -32.1261 -12.5702 500620.0065 -3.4611 -3.6028
ENERGY: 9000 1711.4298 2316.8728 3150.7264 0.0000 -175772.6997 20248.6616 634.9824 0.0000 30684.1884 -117025.8383 298.3333 -147710.0268 -116983.5321 299.0212 -9.2955 38.1471 501289.0519 12.1120 12.1336
ENERGY: 10000 1646.8776 2372.8979 3179.4672 0.0000 -175782.2537 20239.7449 699.6879 0.0000 30918.0092 -116725.5690 300.6067 -147643.5782 -116680.1671 299.2712 10.3397 -14.6418 500829.9795 6.6371 6.8495
TCL: Setting parameter constraintScaling to 2.5
TCL: Running for 5000 steps
ETITLE: TS BOND ANGLE DIHED IMPRP ELECT VDW BOUNDARY MISC KINETIC TOTAL TEMP POTENTIAL TOTAL3 TEMPAVG PRESSURE GPRESSURE VOLUME PRESSAVG GPRESSAVG
ENERGY: 10000 1646.8776 2372.8979 3179.4672 0.0000 -175782.2537 20239.7449 349.8439 0.0000 30915.9522 -117077.4699 300.5867 -147993.4221 -117034.4951 300.5867 71.8474 49.9293 500829.9795 71.8474 49.9293
ENERGY: 11000 1545.0504 2333.6423 3201.2415 0.0000 -175431.8129 20121.9220 501.5292 0.0000 30776.9382 -116951.4892 299.2351 -147728.4274 -116903.6444 299.8391 52.8809 -25.3472 502597.4189 20.6720 20.1335
ENERGY: 12000 1641.3280 2314.2801 3198.1769 0.0000 -175131.5876 19990.9283 504.1361 0.0000 30870.1358 -116612.6023 300.1412 -147482.7381 -116571.9030 300.4968 -67.2141 32.4155 501565.5426 -0.2344 -0.4364
ENERGY: 13000 1593.5367 2372.0285 3149.9965 0.0000 -175343.7619 19861.3468 512.7410 0.0000 30606.0130 -117248.0996 297.5732 -147854.1125 -117206.8838 298.6577 130.3341 62.7030 501345.3377 -5.3233 -5.1012
ENERGY: 14000 1618.9641 2326.8125 3172.2683 0.0000 -175713.6068 20216.2745 494.1830 0.0000 30764.8048 -117120.2995 299.1171 -147885.1043 -117076.7234 298.7342 -39.0797 4.6729 499810.7054 8.9340 8.7531
ENERGY: 15000 1604.6834 2324.9144 3181.4209 0.0000 -176001.0971 19986.3955 525.0478 0.0000 30944.6206 -117434.0147 300.8654 -148378.6352 -117375.6356 299.0296 -113.1746 -24.8273 499583.7987 -1.2444 -2.0116
TCL: Setting parameter constraintScaling to 1.25
TCL: Running for 5000 steps
ETITLE: TS BOND ANGLE DIHED IMPRP ELECT VDW BOUNDARY MISC KINETIC TOTAL TEMP POTENTIAL TOTAL3 TEMPAVG PRESSURE GPRESSURE VOLUME PRESSAVG GPRESSAVG
ENERGY: 15000 1604.6834 2324.9144 3181.4209 0.0000 -176001.0971 19986.3955 262.5239 0.0000 30942.5726 -117698.5865 300.8455 -148641.1591 -117653.8515 300.8455 -115.6063 -35.5745 499583.7987 -115.6063 -35.5745
ENERGY: 16000 1653.0331 2354.3153 3213.1745 0.0000 -175774.7516 20060.0343 370.5400 0.0000 30825.7964 -117297.8580 299.7101 -148123.6544 -117237.5346 299.8912 -5.2774 49.7306 498406.2291 -6.6899 -6.8380
ENERGY: 17000 1617.2969 2309.1854 3162.8509 0.0000 -175660.0662 19950.1657 396.8987 0.0000 30824.0511 -117399.6175 299.6931 -148223.6686 -117355.3375 298.5844 62.9405 18.5056 500060.6384 0.4431 0.7543
ENERGY: 18000 1654.2543 2354.5909 3184.0652 0.0000 -176032.8766 20237.1299 398.5164 0.0000 30758.1987 -117446.1213 299.0529 -148204.3200 -117395.0075 299.2024 50.3887 27.4229 499713.7744 -2.6234 -2.9838
ENERGY: 19000 1625.7881 2372.3883 3191.2593 0.0000 -175359.5504 19745.0578 427.8661 0.0000 30834.5136 -117162.6772 299.7949 -147997.1908 -117113.9096 300.0260 1.4114 -11.1632 500535.1061 0.4470 0.3840
ENERGY: 20000 1640.4028 2392.3238 3247.7888 0.0000 -175985.1274 20144.3755 397.1038 0.0000 30749.1637 -117413.9690 298.9650 -148163.1327 -117373.5622 299.4729 58.6109 92.1002 499761.8951 12.5953 12.8220
TCL: Setting parameter constraintScaling to 0.625
TCL: Running for 5000 steps
ETITLE: TS BOND ANGLE DIHED IMPRP ELECT VDW BOUNDARY MISC KINETIC TOTAL TEMP POTENTIAL TOTAL3 TEMPAVG PRESSURE GPRESSURE VOLUME PRESSAVG GPRESSAVG
ENERGY: 20000 1640.4028 2392.3238 3247.7888 0.0000 -175985.1274 20144.3755 198.5519 0.0000 30747.1257 -117614.5589 298.9452 -148361.6846 -117572.6590 298.9452 17.4392 61.3239 499761.8951 17.4392 61.3239
ENERGY: 21000 1672.2437 2361.4659 3228.9585 0.0000 -176296.9016 20365.0414 295.9890 0.0000 30898.1054 -117475.0977 300.4132 -148373.2031 -117429.1531 300.2944 41.9781 61.5647 499880.5379 4.6937 4.7720
ENERGY: 22000 1602.8839 2354.2025 3216.0595 0.0000 -175356.2650 19919.2015 326.1778 0.0000 31104.5906 -116833.1491 302.4208 -147937.7397 -116784.1988 300.0165 57.8524 88.1331 500078.9387 6.1763 5.7692
ENERGY: 23000 1607.1454 2397.5593 3223.8863 0.0000 -175897.2325 20276.0673 320.5183 0.0000 30848.8841 -117223.1718 299.9346 -148072.0560 -117174.1391 300.3325 5.7220 56.7969 498877.6669 2.3955 1.9957
ENERGY: 24000 1663.7884 2394.8170 3171.2198 0.0000 -175319.2196 19895.0276 318.1384 0.0000 30815.2828 -117060.9456 299.6079 -147876.2284 -117008.6682 299.0800 -11.6498 -90.1503 499483.8465 -1.9209 -2.2093
ENERGY: 25000 1678.2435 2366.6822 3191.8715 0.0000 -175660.8812 19947.0161 326.7487 0.0000 31055.3405 -117094.9786 301.9419 -148150.3191 -117041.8778 300.5081 -27.9115 10.2483 498226.4169 1.6387 0.8989
TCL: Setting parameter constraintScaling to 0.3125
TCL: Running for 5000 steps
ETITLE: TS BOND ANGLE DIHED IMPRP ELECT VDW BOUNDARY MISC KINETIC TOTAL TEMP POTENTIAL TOTAL3 TEMPAVG PRESSURE GPRESSURE VOLUME PRESSAVG GPRESSAVG
ENERGY: 25000 1678.2435 2366.6822 3191.8715 0.0000 -175660.8812 19947.0161 163.3743 0.0000 31053.3075 -117260.3859 301.9221 -148313.6935 -117218.3209 301.9221 -82.8380 -44.9479 498226.4169 -82.8380 -44.9479
ENERGY: 26000 1640.3265 2401.2160 3215.9783 0.0000 -175539.1230 19931.4822 241.2817 0.0000 30902.1536 -117206.6846 300.4525 -148108.8382 -117160.0343 300.5745 -2.6030 59.4341 499358.3225 7.3122 7.4999
ENERGY: 27000 1643.6063 2403.5128 3233.5945 0.0000 -175848.0147 20150.6838 267.7336 0.0000 30857.8029 -117291.0808 300.0213 -148148.8837 -117251.8613 300.4232 0.7807 -19.5459 499190.9697 -3.1387 -3.3888
ENERGY: 28000 1628.9204 2385.8197 3192.8756 0.0000 -175591.8487 20043.8945 242.1035 0.0000 30861.6836 -117236.5514 300.0590 -148098.2350 -117193.0679 300.3431 -7.3958 68.3759 498129.1233 3.0452 3.3633
ENERGY: 29000 1648.6339 2429.7757 3217.7839 0.0000 -175342.2151 20052.6184 272.5207 0.0000 30919.3122 -116801.5703 300.6193 -147720.8825 -116760.1783 300.6663 -22.6337 26.5135 497950.2655 2.8886 2.6477
ENERGY: 30000 1648.1942 2443.8254 3186.1013 0.0000 -175347.1193 19915.1302 250.9491 0.0000 30818.8233 -117084.0958 299.6423 -147902.9191 -117037.6536 300.2349 -73.0446 4.6897 497385.4212 -2.4561 -3.0944
TCL: Setting parameter constraintScaling to 0.15625
TCL: Running for 5000 steps
ETITLE: TS BOND ANGLE DIHED IMPRP ELECT VDW BOUNDARY MISC KINETIC TOTAL TEMP POTENTIAL TOTAL3 TEMPAVG PRESSURE GPRESSURE VOLUME PRESSAVG GPRESSAVG
ENERGY: 30000 1648.1942 2443.8254 3186.1013 0.0000 -175347.1193 19915.1302 125.4745 0.0000 30816.7678 -117211.6259 299.6223 -148028.3937 -117168.9405 299.6223 -93.1410 -18.0212 497385.4212 -93.1410 -18.0212
ENERGY: 31000 1637.2960 2358.1306 3169.1759 0.0000 -175795.7755 20085.4013 189.5084 0.0000 30863.0571 -117493.2061 300.0724 -148356.2632 -117446.1540 299.9078 106.0754 19.3583 497421.0769 2.0417 1.5218
ENERGY: 32000 1598.3708 2409.9862 3206.7289 0.0000 -175420.7704 20000.1920 201.5882 0.0000 30859.3076 -117144.5968 300.0359 -148003.9044 -117089.5160 300.4932 -81.5062 24.3045 499049.7776 12.2660 12.1359
ENERGY: 33000 1632.8085 2386.2806 3204.1417 0.0000 -175710.2743 20145.9084 196.4249 0.0000 30815.5343 -117329.1758 299.6103 -148144.7102 -117267.3733 300.0777 -103.7693 39.9831 497616.7894 -4.5614 -4.8183
ENERGY: 34000 1589.8436 2442.4784 3215.4074 0.0000 -175499.8093 19868.9171 211.9661 0.0000 30632.8866 -117538.3101 297.8345 -148171.1967 -117493.5847 300.0702 -5.6703 8.4218 496375.7251 4.0423 4.3137
ENERGY: 35000 1633.4842 2417.5674 3186.0032 0.0000 -176118.1385 20295.2346 208.0599 0.0000 30711.9805 -117665.8088 298.6035 -148377.7893 -117623.3256 299.0921 137.3942 51.0560 497081.5124 -3.7081 -3.6170
TCL: Setting parameter constraintScaling to 0.078125
TCL: Running for 5000 steps
ETITLE: TS BOND ANGLE DIHED IMPRP ELECT VDW BOUNDARY MISC KINETIC TOTAL TEMP POTENTIAL TOTAL3 TEMPAVG PRESSURE GPRESSURE VOLUME PRESSAVG GPRESSAVG
ENERGY: 35000 1633.4842 2417.5674 3186.0032 0.0000 -176118.1385 20295.2346 104.0299 0.0000 30709.9257 -117771.8936 298.5835 -148481.8193 -117731.8457 298.5835 108.4366 20.1463 497081.5124 108.4366 20.1463
ENERGY: 36000 1616.4865 2433.2744 3203.2137 0.0000 -176051.7692 20110.9012 143.3418 0.0000 30665.4459 -117879.1057 298.1511 -148544.5516 -117828.8399 298.9931 32.6403 40.3344 496848.3235 4.0937 3.7842
ENERGY: 37000 1650.3877 2425.9391 3145.2006 0.0000 -175800.1516 20052.3159 158.3808 0.0000 30570.8075 -117797.1201 297.2309 -148367.9276 -117755.5749 298.6741 77.8312 117.0083 496570.0332 2.0866 2.6514
ENERGY: 38000 1587.2294 2381.8295 3202.5094 0.0000 -175892.3386 20130.0264 171.5157 0.0000 30882.5256 -117536.7026 300.2617 -148419.2282 -117488.5827 299.9477 8.0557 2.8608 497637.7618 8.1883 8.6489
ENERGY: 39000 1616.7004 2353.1251 3204.3660 0.0000 -175928.1246 20115.4179 154.6663 0.0000 30923.1769 -117560.6721 300.6569 -148483.8490 -117512.8606 299.8225 144.9154 88.9957 497570.6333 -5.1435 -5.2816
ENERGY: 40000 1680.6748 2376.8572 3183.8140 0.0000 -176015.5090 20104.0172 158.0367 0.0000 30756.5668 -117755.5424 299.0370 -148512.1092 -117702.2956 299.4550 6.1962 52.5844 497591.3499 1.4756 1.0913
TCL: Setting parameter constraintScaling to 0.0390625
TCL: Running for 5000 steps
ETITLE: TS BOND ANGLE DIHED IMPRP ELECT VDW BOUNDARY MISC KINETIC TOTAL TEMP POTENTIAL TOTAL3 TEMPAVG PRESSURE GPRESSURE VOLUME PRESSAVG GPRESSAVG
ENERGY: 40000 1680.6748 2376.8572 3183.8140 0.0000 -176015.5090 20104.0172 79.0184 0.0000 30754.5231 -117836.6044 299.0171 -148591.1275 -117794.4956 299.0171 -16.5667 33.5565 497591.3499 -16.5667 33.5565
ENERGY: 41000 1704.9487 2413.4281 3203.7292 0.0000 -176244.8119 20173.3124 106.9232 0.0000 30754.2211 -117888.2491 299.0142 -148642.4702 -117851.2192 299.1017 29.0022 -5.2030 497139.5463 -7.5299 -7.4410
ENERGY: 42000 1669.5825 2386.0714 3189.5080 0.0000 -175994.4442 20154.0267 119.7200 0.0000 30926.0073 -117549.5283 300.6844 -148475.5355 -117496.4298 300.4557 -10.2076 12.2024 496466.0435 -1.6439 -2.1192
ENERGY: 43000 1584.4898 2375.4799 3232.9210 0.0000 -176022.9913 20205.7048 112.4696 0.0000 30821.4188 -117690.5074 299.6676 -148511.9262 -117642.6460 299.5816 -31.5074 25.0355 498467.2485 24.7778 25.2948
ENERGY: 44000 1622.6025 2320.0505 3231.6125 0.0000 -175596.4888 19843.0414 125.9908 0.0000 30523.6391 -117929.5520 296.7723 -148453.1910 -117886.0097 298.6767 -18.3154 17.4196 497596.9687 -4.0491 -4.5917
ENERGY: 45000 1670.6368 2406.4757 3225.5742 0.0000 -175796.7769 20001.6262 128.8116 0.0000 30618.9028 -117744.7496 297.6986 -148363.6523 -117684.4942 299.0188 -42.2010 -56.0796 496638.9608 0.8110 -0.0388
TCL: Setting parameter constraintScaling to 0.01953125
TCL: Running for 5000 steps
ETITLE: TS BOND ANGLE DIHED IMPRP ELECT VDW BOUNDARY MISC KINETIC TOTAL TEMP POTENTIAL TOTAL3 TEMPAVG PRESSURE GPRESSURE VOLUME PRESSAVG GPRESSAVG
ENERGY: 45000 1670.6368 2406.4757 3225.5742 0.0000 -175796.7769 20001.6262 64.4058 0.0000 30616.8705 -117811.1876 297.6788 -148428.0581 -117771.5713 297.6788 -54.0243 -63.4520 496638.9608 -54.0243 -63.4520
ENERGY: 46000 1588.5249 2401.6846 3237.0885 0.0000 -175998.0305 20173.1107 84.5798 0.0000 30611.9777 -117901.0642 297.6312 -148513.0419 -117866.2762 299.6135 70.7110 84.5242 497328.8648 5.6447 5.0579
ENERGY: 47000 1616.2439 2381.3296 3245.5247 0.0000 -175775.6164 20040.4176 93.6842 0.0000 30581.5492 -117816.8670 297.3354 -148398.4163 -117773.8829 299.2156 -161.9755 -32.8002 498332.3570 -3.5865 -2.3458
ENERGY: 48000 1572.4620 2431.2115 3194.2315 0.0000 -176280.2640 20114.5569 89.3594 0.0000 30871.1607 -118007.2820 300.1512 -148878.4427 -117968.9700 298.0632 -112.0262 -27.4871 496036.2628 -8.6497 -8.2249
ENERGY: 49000 1656.0734 2434.1045 3231.0238 0.0000 -176220.6170 20089.5191 89.5477 0.0000 30579.7894 -118140.5590 297.3183 -148720.3484 -118098.5194 299.0420 -80.2683 23.8379 495401.5450 -0.7230 -0.7662
ENERGY: 50000 1614.1427 2376.3777 3206.9828 0.0000 -176071.8763 20125.6190 98.2985 0.0000 30804.2429 -117846.2126 299.5006 -148650.4556 -117799.9922 299.8185 13.2219 78.4350 496017.8977 4.2766 4.3775
TCL: Setting parameter constraintScaling to 0
TCL: Running for 5000 steps
ETITLE: TS BOND ANGLE DIHED IMPRP ELECT VDW BOUNDARY MISC KINETIC TOTAL TEMP POTENTIAL TOTAL3 TEMPAVG PRESSURE GPRESSURE VOLUME PRESSAVG GPRESSAVG
ENERGY: 50000 1614.1427 2376.3777 3206.9828 0.0000 -176071.8763 20125.6190 0.0000 0.0000 30802.1977 -117946.5564 299.4807 -148748.7541 -117900.4724 299.4807 -3.9784 71.6136 496017.8977 -3.9784 71.6136
ENERGY: 51000 1660.5881 2440.3132 3207.3770 0.0000 -175869.1054 20026.4719 0.0000 0.0000 30844.2828 -117690.0724 299.8899 -148534.3552 -117644.9893 300.5160 1.3705 57.5479 496304.3897 9.3235 9.5804
ENERGY: 52000 1649.5375 2455.7270 3204.2873 0.0000 -175739.8733 20051.9877 0.0000 0.0000 30878.9325 -117499.4013 300.2267 -148378.3338 -117459.6582 300.6966 -44.5075 -62.2465 496895.6471 2.0445 1.8939
ENERGY: 53000 1652.3792 2416.3675 3203.1219 0.0000 -175890.9385 19948.1992 0.0000 0.0000 30904.9927 -117765.8778 300.4801 -148670.8706 -117718.6716 299.7194 -160.8788 -33.3339 495462.8064 -9.1396 -9.1352
ENERGY: 54000 1651.3795 2415.2740 3221.7114 0.0000 -176293.7024 20213.2595 0.0000 0.0000 30809.6686 -117982.4095 299.5533 -148792.0781 -117945.3464 299.1852 -45.1759 -23.4575 496933.0203 1.7866 1.5959
ENERGY: 55000 1641.2891 2380.8563 3221.5974 0.0000 -176109.2485 20065.0284 0.0000 0.0000 30934.2966 -117866.1806 300.7650 -148800.4772 -117814.6065 300.3591 -27.2464 58.6572 497191.1354 -1.4207 -0.9800
