Info: SIMULATION PARAMETERS:
Info: TIMESTEP               2
Info: NUMBER OF STEPS        0
Info: STEPS PER CYCLE        10
Info: PERIODIC CELL BASIS 1  72.449 0 0
Info: PERIODIC CELL BASIS 2  0 93.247 0
Info: PERIODIC CELL BASIS 3  0 0 79.185
Info: PERIODIC CELL CENTER   -0.248 -0.156 -0.047
Info: WRAPPING WATERS AROUND PERIODIC BOUNDARIES ON OUTPUT.
Info: WRAPPING ALL CLUSTERS AROUND PERIODIC BOUNDARIES ON OUTPUT.
Info: FIRST LDB TIMESTEP     50
Info: LAST LDB TIMESTEP     -1
Info: HOM BACKGROUND SCALING 1
Info: PME BACKGROUND SCALING 1
Info: MIN ATOMS PER PATCH    40
Info: INITIAL TEMPERATURE    0
Info: CENTER OF MASS MOVING INITIALLY? NO
Info: DIELECTRIC             1
Info: EXCLUDE                SCALED ONE-FOUR
Info: 1-4 ELECTROSTATICS SCALED BY 0.833333
Info: MODIFIED 1-4 VDW PARAMETERS WILL BE USED
Info: NO DCD TRAJECTORY OUTPUT
Info: NO EXTENDED SYSTEM TRAJECTORY OUTPUT
Info: NO VELOCITY DCD OUTPUT
Info: NO FORCE DCD OUTPUT
Info: OUTPUT FILENAME        ../replicas/rep128/equilibration/eq0
Info: NO RESTART FILE
Info: SWITCHING ACTIVE
Info: SWITCHING ON           10
Info: SWITCHING OFF          12
Info: PAIRLIST DISTANCE      13.5
Info: PAIRLIST SHRINK RATE   0.01
Info: PAIRLIST GROW RATE     0.01
Info: PAIRLIST TRIGGER       0.3
Info: PAIRLISTS PER CYCLE    2
Info: PAIRLISTS ENABLED
Info: MARGIN                 0
Info: HYDROGEN GROUP CUTOFF  2.5
Info: PATCH DIMENSION        16
Info: ENERGY OUTPUT STEPS    500
Info: CROSSTERM ENERGY INCLUDED IN DIHEDRAL
Info: TIMING OUTPUT STEPS    5000
Info: PRESSURE OUTPUT STEPS  500
Info: HARMONIC CONSTRAINTS ACTIVE
Info: HARMONIC CONS EXP      2
Info: HARMONIC CONS SCALING  10
Info: CONJUGATE GRADIENT MINIMIZATION ACTIVE
Info: LINE MINIMIZATION GOAL = 0.001
Info: BABY STEP SIZE = 0.01
Info: TINY STEP SIZE = 1e-06
Info: PARTICLE MESH EWALD (PME) ACTIVE
Info: PME TOLERANCE               1e-06
Info: PME EWALD COEFFICIENT       0.257952
Info: PME INTERPOLATION ORDER     4
Info: PME GRID DIMENSIONS         80 96 80
Info: PME MAXIMUM GRID SPACING    1
Info: FULL ELECTROSTATIC EVALUATION FREQUENCY      2
Info: USING VERLET I (r-RESPA) MTS SCHEME.
Info: C1 SPLITTING OF LONG RANGE ELECTROSTATICS
Info: PLACING ATOMS IN PATCHES BY HYDROGEN GROUPS
Info: RIGID BONDS TO HYDROGEN : ALL
Info:         ERROR TOLERANCE : 1e-05
Info:          MAX ITERATIONS : 100
Info: RIGID WATER USING SETTLE ALGORITHM
Info: RANDOM NUMBER SEED     1503692484
Info: USE HYDROGEN BONDS?    NO
Info: Using AMBER format force field!
Info: AMBER PARM FILE        ../build/complex.top
Info: COORDINATE PDB         ../build/complex.pdb
Info: Exclusions in PARM file will be ignored!
Info: SCNB (VDW SCALING)     2
Info: USING ARITHMETIC MEAN TO COMBINE L-J SIGMA PARAMETERS
Info: SUMMARY OF PARAMETERS:
Info: 71 BONDS
Info: 145 ANGLES
Info: 76 DIHEDRAL
Info: 0 IMPROPER
Info: 0 CROSSTERM
Info: 0 VDW
Info: 190 VDW_PAIRS
Info: 0 NBTHOLE_PAIRS
Info: STRUCTURE SUMMARY:
Info: 49394 ATOMS
Info: 49448 BONDS
Info: 8698 ANGLES
Info: 18780 DIHEDRALS
Info: 0 IMPROPERS
Info: 0 CROSSTERMS
Info: 0 EXCLUSIONS
Info: 2336 CONSTRAINTS
Info: 47058 RIGID BONDS
Info: 101124 DEGREES OF FREEDOM
Info: 17225 HYDROGEN GROUPS
Info: 4 ATOMS IN LARGEST HYDROGEN GROUP
Info: 17225 MIGRATION GROUPS
Info: 4 ATOMS IN LARGEST MIGRATION GROUP
Info: TOTAL MASS = 301478 amu
Info: TOTAL CHARGE = 1.00115e-05 e
Info: MASS DENSITY = 0.935846 g/cm^3
Info: ATOM DENSITY = 0.0923345 atoms/A^3
Info: ADDED 70656 IMPLICIT EXCLUSIONS
Info: NONBONDED TABLE R-SQUARED SPACING: 0.0625
Info: NONBONDED TABLE SIZE: 769 POINTS
Info: REMOVING COM VELOCITY 0 0 0
TCL: Minimizing for 100 steps
ETITLE: TS BOND ANGLE DIHED IMPRP ELECT VDW BOUNDARY MISC KINETIC TOTAL TEMP POTENTIAL TOTAL3 TEMPAVG PRESSURE GPRESSURE VOLUME PRESSAVG GPRESSAVG
ENERGY: 0 155.4176 1012.2698 2855.7272 0.0000 -154496.7912 207729.2052 0.0468 0.0000 0.0000 57255.8754 0.0000 57255.8754 57255.8754 0.0000 116350.2532 86546.1670 534946.2959 116350.2532 86546.1670
ENERGY: 20 304.7546 935.7911 2893.4663 0.0000 -158672.9404 17936.6596 143.9454 0.0000 0.0000 -136458.3234 0.0000 -136458.3234 -136458.3234 0.0000 16523.9389 -239.4556 534946.2959 16523.9389 -239.4556
ENERGY: 40 198.7442 799.5727 2896.9273 0.0000 -162811.4537 16417.9536 221.3030 0.0000 0.0000 -142276.9530 0.0000 -142276.9530 -142276.9530 0.0000 15011.2702 -2135.4700 534946.2959 15011.2702 -2135.4700
ENERGY: 60 130.5283 715.3440 2898.2166 0.0000 -167496.1571 15446.7539 315.2796 0.0000 0.0000 -147990.0347 0.0000 -147990.0347 -147990.0347 0.0000 13793.8836 -3799.3987 534946.2959 13793.8836 -3799.3987
ENERGY: 80 431.2746 765.6309 2904.3786 0.0000 -169937.5355 15121.1516 372.0123 0.0000 0.0000 -150343.0874 0.0000 -150343.0874 -150343.0874 0.0000 13270.3294 -4577.2471 534946.2959 13270.3294 -4577.2471
ENERGY: 100 119.3852 710.0599 2905.2590 0.0000 -171259.7115 14991.7872 387.3612 0.0000 0.0000 -152145.8590 0.0000 -152145.8590 -152145.8590 0.0000 13056.2658 -4908.1719 534946.2959 13056.2658 -4908.1719
TCL: Setting parameter constraintScaling to 5.0
TCL: Minimizing for 100 steps
ETITLE: TS BOND ANGLE DIHED IMPRP ELECT VDW BOUNDARY MISC KINETIC TOTAL TEMP POTENTIAL TOTAL3 TEMPAVG PRESSURE GPRESSURE VOLUME PRESSAVG GPRESSAVG
ENERGY: 100 119.3852 710.0599 2905.2590 0.0000 -171259.7115 14991.7872 193.6806 0.0000 0.0000 -152339.5396 0.0000 -152339.5396 -152339.5396 0.0000 13672.7719 -23021.8179 534946.2959 13672.7719 -23021.8179
ENERGY: 120 108.8807 687.5829 2912.9265 0.0000 -172865.8738 14798.2712 281.1911 0.0000 0.0000 -154077.0215 0.0000 -154077.0215 -154077.0215 0.0000 13218.2572 -4906.0133 534946.2959 13218.2572 -4906.0133
ENERGY: 140 309.3852 708.8576 2913.8026 0.0000 -174236.7873 14731.4752 326.6431 0.0000 0.0000 -155246.6237 0.0000 -155246.6237 -155246.6237 0.0000 12971.5157 -5303.2690 534946.2959 12971.5157 -5303.2690
ENERGY: 160 265.5017 683.1914 2923.1894 0.0000 -176276.7989 14757.4222 382.9445 0.0000 0.0000 -157264.5496 0.0000 -157264.5496 -157264.5496 0.0000 12740.7730 -5743.4930 534946.2959 12740.7730 -5743.4930
ENERGY: 180 268.7228 744.1012 2928.5664 0.0000 -178996.5268 15023.7022 473.3612 0.0000 0.0000 -159558.0730 0.0000 -159558.0730 -159558.0730 0.0000 12521.5453 -6224.1763 534946.2959 12521.5453 -6224.1763
ENERGY: 200 239.0769 694.0694 2941.3743 0.0000 -181557.1209 15587.2512 546.2826 0.0000 0.0000 -161549.0665 0.0000 -161549.0665 -161549.0665 0.0000 12582.6609 -6425.0583 534946.2959 12582.6609 -6425.0583
TCL: Setting parameter constraintScaling to 2.5
TCL: Minimizing for 100 steps
ETITLE: TS BOND ANGLE DIHED IMPRP ELECT VDW BOUNDARY MISC KINETIC TOTAL TEMP POTENTIAL TOTAL3 TEMPAVG PRESSURE GPRESSURE VOLUME PRESSAVG GPRESSAVG
ENERGY: 200 239.0769 694.0694 2941.3743 0.0000 -181557.1209 15587.2512 273.1413 0.0000 0.0000 -161822.2078 0.0000 -161822.2078 -161822.2078 0.0000 13229.5888 -25655.9343 534946.2959 13229.5888 -25655.9343
ENERGY: 220 246.5793 677.6155 2933.0072 0.0000 -182076.9137 15472.1621 337.5978 0.0000 0.0000 -162409.9518 0.0000 -162409.9518 -162409.9518 0.0000 12971.8886 -6090.3991 534946.2959 12971.8886 -6090.3991
ENERGY: 240 115.5880 674.4747 2928.4634 0.0000 -182573.4053 15511.2133 344.9969 0.0000 0.0000 -162998.6691 0.0000 -162998.6691 -162998.6691 0.0000 13036.7564 -6117.2375 534946.2959 13036.7564 -6117.2375
ENERGY: 260 144.8540 676.5380 2920.8227 0.0000 -184117.5341 15841.9736 391.8989 0.0000 0.0000 -164141.4470 0.0000 -164141.4470 -164141.4470 0.0000 13045.0059 -6258.0922 534946.2959 13045.0059 -6258.0922
ENERGY: 280 172.0465 701.2631 2917.6006 0.0000 -185428.5504 16230.7733 455.2380 0.0000 0.0000 -164951.6289 0.0000 -164951.6289 -164951.6289 0.0000 13143.4901 -6339.2392 534946.2959 13143.4901 -6339.2392
ENERGY: 300 126.6690 639.5447 2916.2484 0.0000 -186094.9680 16445.8239 481.4071 0.0000 0.0000 -165485.2748 0.0000 -165485.2748 -165485.2748 0.0000 13207.7017 -6342.7135 534946.2959 13207.7017 -6342.7135
TCL: Setting parameter constraintScaling to 1.25
TCL: Minimizing for 100 steps
ETITLE: TS BOND ANGLE DIHED IMPRP ELECT VDW BOUNDARY MISC KINETIC TOTAL TEMP POTENTIAL TOTAL3 TEMPAVG PRESSURE GPRESSURE VOLUME PRESSAVG GPRESSAVG
ENERGY: 300 126.6690 639.5447 2916.2484 0.0000 -186094.9680 16445.8239 240.7036 0.0000 0.0000 -165725.9784 0.0000 -165725.9784 -165725.9784 0.0000 13656.0622 -26352.7341 534946.2959 13656.0622 -26352.7341
ENERGY: 320 140.3388 638.9452 2911.3648 0.0000 -186777.8784 16609.1121 282.6085 0.0000 0.0000 -166195.5090 0.0000 -166195.5090 -166195.5090 0.0000 13601.7796 -6009.0299 534946.2959 13601.7796 -6009.0299
ENERGY: 340 143.3652 625.2401 2909.3172 0.0000 -187253.2495 16773.9744 289.2595 0.0000 0.0000 -166512.0931 0.0000 -166512.0931 -166512.0931 0.0000 13696.7819 -5972.6177 534946.2959 13696.7819 -5972.6177
ENERGY: 360 180.6877 672.8006 2908.2340 0.0000 -188789.2555 17299.0406 345.7471 0.0000 0.0000 -167382.7456 0.0000 -167382.7456 -167382.7456 0.0000 13873.7749 -5992.9447 534946.2959 13873.7749 -5992.9447
ENERGY: 380 196.9120 647.3231 2900.9411 0.0000 -190450.7093 17953.8110 402.7290 0.0000 0.0000 -168348.9931 0.0000 -168348.9931 -168348.9931 0.0000 14033.9044 -5975.5052 534946.2959 14033.9044 -5975.5052
ENERGY: 400 136.7049 656.5705 2902.6295 0.0000 -191200.1561 18219.9125 414.7025 0.0000 0.0000 -168869.6362 0.0000 -168869.6362 -168869.6362 0.0000 14253.8946 -5880.7562 534946.2959 14253.8946 -5880.7562
TCL: Setting parameter constraintScaling to 0.625
TCL: Minimizing for 100 steps
ETITLE: TS BOND ANGLE DIHED IMPRP ELECT VDW BOUNDARY MISC KINETIC TOTAL TEMP POTENTIAL TOTAL3 TEMPAVG PRESSURE GPRESSURE VOLUME PRESSAVG GPRESSAVG
ENERGY: 400 136.7049 656.5705 2902.6295 0.0000 -191200.1561 18219.9125 207.3513 0.0000 0.0000 -169076.9875 0.0000 -169076.9875 -169076.9875 0.0000 14560.2233 -26645.5721 534946.2959 14560.2233 -26645.5721
ENERGY: 420 181.7952 639.0287 2899.6020 0.0000 -191478.2198 18285.0107 223.4120 0.0000 0.0000 -169249.3713 0.0000 -169249.3713 -169249.3713 0.0000 14435.1890 -5689.9814 534946.2959 14435.1890 -5689.9814
ENERGY: 440 194.7396 644.4215 2890.8774 0.0000 -192266.4098 18515.9867 255.8328 0.0000 0.0000 -169764.5518 0.0000 -169764.5518 -169764.5518 0.0000 14465.1073 -5740.6609 534946.2959 14465.1073 -5740.6609
ENERGY: 460 138.0932 658.6482 2883.5937 0.0000 -193240.7342 18864.1183 284.7293 0.0000 0.0000 -170411.5516 0.0000 -170411.5516 -170411.5516 0.0000 14733.5022 -5635.7299 534946.2959 14733.5022 -5635.7299
ENERGY: 480 173.6254 649.7213 2882.1350 0.0000 -193582.2824 18995.0647 292.1499 0.0000 0.0000 -170589.5861 0.0000 -170589.5861 -170589.5861 0.0000 14698.9191 -5668.4016 534946.2959 14698.9191 -5668.4016
ENERGY: 500 200.5240 650.1461 2879.6890 0.0000 -194394.8918 19331.1641 300.0379 0.0000 0.0000 -171033.3306 0.0000 -171033.3306 -171033.3306 0.0000 14901.1667 -5575.0995 534946.2959 14901.1667 -5575.0995
TCL: Setting parameter constraintScaling to 0.3125
TCL: Minimizing for 100 steps
ETITLE: TS BOND ANGLE DIHED IMPRP ELECT VDW BOUNDARY MISC KINETIC TOTAL TEMP POTENTIAL TOTAL3 TEMPAVG PRESSURE GPRESSURE VOLUME PRESSAVG GPRESSAVG
ENERGY: 500 200.5240 650.1461 2879.6890 0.0000 -194394.8918 19331.1641 150.0190 0.0000 0.0000 -171183.3496 0.0000 -171183.3496 -171183.3496 0.0000 15094.4765 -26857.2050 534946.2959 15094.4765 -26857.2050
ENERGY: 520 146.4851 636.6486 2877.1900 0.0000 -194574.9881 19382.6308 157.4317 0.0000 0.0000 -171374.6020 0.0000 -171374.6020 -171374.6020 0.0000 15094.2564 -5393.4241 534946.2959 15094.2564 -5393.4241
ENERGY: 540 165.0023 638.4378 2874.2324 0.0000 -194893.6085 19486.6647 167.6007 0.0000 0.0000 -171561.6705 0.0000 -171561.6705 -171561.6705 0.0000 15111.5197 -5410.9825 534946.2959 15111.5197 -5410.9825
ENERGY: 560 152.3752 641.6705 2870.3543 0.0000 -195580.7634 19722.9733 188.3609 0.0000 0.0000 -172005.0293 0.0000 -172005.0293 -172005.0293 0.0000 15198.2608 -5403.6001 534946.2959 15198.2608 -5403.6001
ENERGY: 580 159.6229 647.0129 2870.2338 0.0000 -195876.3918 19841.3038 190.9091 0.0000 0.0000 -172167.3094 0.0000 -172167.3094 -172167.3094 0.0000 15274.6407 -5362.1283 534946.2959 15274.6407 -5362.1283
ENERGY: 600 174.4686 641.0122 2869.8940 0.0000 -196204.9586 19965.5889 196.0074 0.0000 0.0000 -172357.9874 0.0000 -172357.9874 -172357.9874 0.0000 15314.0683 -5355.7458 534946.2959 15314.0683 -5355.7458
TCL: Setting parameter constraintScaling to 0.15625
TCL: Minimizing for 100 steps
ETITLE: TS BOND ANGLE DIHED IMPRP ELECT VDW BOUNDARY MISC KINETIC TOTAL TEMP POTENTIAL TOTAL3 TEMPAVG PRESSURE GPRESSURE VOLUME PRESSAVG GPRESSAVG
ENERGY: 600 174.4686 641.0122 2869.8940 0.0000 -196204.9586 19965.5889 98.0037 0.0000 0.0000 -172455.9911 0.0000 -172455.9911 -172455.9911 0.0000 15427.1060 -26953.8978 534946.2959 15427.1060 -26953.8978
ENERGY: 620 158.2939 641.0624 2865.9136 0.0000 -196470.7145 20053.5255 103.8423 0.0000 0.0000 -172648.0768 0.0000 -172648.0768 -172648.0768 0.0000 15449.7999 -5255.5389 534946.2959 15449.7999 -5255.5389
ENERGY: 640 187.1833 677.3008 2867.3205 0.0000 -196827.4341 20183.0005 109.7382 0.0000 0.0000 -172802.8908 0.0000 -172802.8908 -172802.8908 0.0000 15509.0148 -5240.1366 534946.2959 15509.0148 -5240.1366
ENERGY: 660 191.6701 671.6194 2862.0381 0.0000 -197861.3131 20579.2190 127.4247 0.0000 0.0000 -173429.3416 0.0000 -173429.3416 -173429.3416 0.0000 15651.8264 -5207.6587 534946.2959 15651.8264 -5207.6587
ENERGY: 680 158.9281 648.8977 2855.0348 0.0000 -198331.9742 20771.0810 135.1435 0.0000 0.0000 -173762.8891 0.0000 -173762.8891 -173762.8891 0.0000 15750.3965 -5166.0208 534946.2959 15750.3965 -5166.0208
ENERGY: 700 169.0026 656.0460 2854.3543 0.0000 -198913.0924 20992.3447 137.1537 0.0000 0.0000 -174104.1911 0.0000 -174104.1911 -174104.1911 0.0000 15908.1926 -5089.3646 534946.2959 15908.1926 -5089.3646
TCL: Setting parameter constraintScaling to 0.078125
TCL: Minimizing for 100 steps
ETITLE: TS BOND ANGLE DIHED IMPRP ELECT VDW BOUNDARY MISC KINETIC TOTAL TEMP POTENTIAL TOTAL3 TEMPAVG PRESSURE GPRESSURE VOLUME PRESSAVG GPRESSAVG
ENERGY: 700 169.0026 656.0460 2854.3543 0.0000 -198913.0924 20992.3447 68.5768 0.0000 0.0000 -174172.7679 0.0000 -174172.7679 -174172.7679 0.0000 15977.7542 -27046.4944 534946.2959 15977.7542 -27046.4944
ENERGY: 720 189.4718 659.2680 2850.4985 0.0000 -199160.9972 21065.3196 72.4122 0.0000 0.0000 -174324.0271 0.0000 -174324.0271 -174324.0271 0.0000 15964.2759 -5054.7619 534946.2959 15964.2759 -5054.7619
ENERGY: 740 186.7319 656.5191 2842.7037 0.0000 -199675.0100 21255.9644 77.3775 0.0000 0.0000 -174655.7135 0.0000 -174655.7135 -174655.7135 0.0000 16031.7179 -5034.5067 534946.2959 16031.7179 -5034.5067
ENERGY: 760 226.2548 688.2492 2852.6698 0.0000 -199886.5166 21321.6173 79.4654 0.0000 0.0000 -174718.2601 0.0000 -174718.2601 -174718.2601 0.0000 16067.3911 -5048.0837 534946.2959 16067.3911 -5048.0837
ENERGY: 780 191.1221 662.1452 2840.6977 0.0000 -200280.4495 21481.6176 81.5938 0.0000 0.0000 -175023.2731 0.0000 -175023.2731 -175023.2731 0.0000 16140.4917 -4999.7028 534946.2959 16140.4917 -4999.7028
ENERGY: 800 196.4341 657.6508 2836.4545 0.0000 -201244.2973 21877.2668 88.6485 0.0000 0.0000 -175587.8426 0.0000 -175587.8426 -175587.8426 0.0000 16375.7827 -4892.4106 534946.2959 16375.7827 -4892.4106
TCL: Setting parameter constraintScaling to 0.0390625
TCL: Minimizing for 100 steps
ETITLE: TS BOND ANGLE DIHED IMPRP ELECT VDW BOUNDARY MISC KINETIC TOTAL TEMP POTENTIAL TOTAL3 TEMPAVG PRESSURE GPRESSURE VOLUME PRESSAVG GPRESSAVG
ENERGY: 800 196.4341 657.6508 2836.4545 0.0000 -201244.2973 21877.2668 44.3243 0.0000 0.0000 -175632.1668 0.0000 -175632.1668 -175632.1668 0.0000 16416.5703 -27171.3683 534946.2959 16416.5703 -27171.3683
ENERGY: 820 193.5918 650.6629 2832.9655 0.0000 -201404.1265 21921.8607 46.0583 0.0000 0.0000 -175758.9873 0.0000 -175758.9873 -175758.9873 0.0000 16408.9393 -4874.5311 534946.2959 16408.9393 -4874.5311
ENERGY: 840 171.3866 672.4762 2830.8941 0.0000 -201704.6547 22035.1572 47.9686 0.0000 0.0000 -175946.7721 0.0000 -175946.7721 -175946.7721 0.0000 16451.2838 -4866.0013 534946.2959 16451.2838 -4866.0013
ENERGY: 860 271.4485 680.6751 2834.6120 0.0000 -202123.7473 22215.1259 49.0349 0.0000 0.0000 -176072.8508 0.0000 -176072.8508 -176072.8508 0.0000 16568.3160 -4807.9305 534946.2959 16568.3160 -4807.9305
ENERGY: 880 173.5835 655.2799 2825.7052 0.0000 -202400.3115 22309.4341 50.8159 0.0000 0.0000 -176385.4929 0.0000 -176385.4929 -176385.4929 0.0000 16594.5243 -4800.3301 534946.2959 16594.5243 -4800.3301
ENERGY: 900 183.2131 676.9627 2827.6695 0.0000 -203028.3011 22592.8669 55.3831 0.0000 0.0000 -176692.2057 0.0000 -176692.2057 -176692.2057 0.0000 16732.0542 -4741.8926 534946.2959 16732.0542 -4741.8926
TCL: Setting parameter constraintScaling to 0.01953125
TCL: Minimizing for 100 steps
ETITLE: TS BOND ANGLE DIHED IMPRP ELECT VDW BOUNDARY MISC KINETIC TOTAL TEMP POTENTIAL TOTAL3 TEMPAVG PRESSURE GPRESSURE VOLUME PRESSAVG GPRESSAVG
ENERGY: 900 183.2131 676.9627 2827.6695 0.0000 -203028.3011 22592.8669 27.6915 0.0000 0.0000 -176719.8973 0.0000 -176719.8973 -176719.8973 0.0000 16755.3902 -27246.7178 534946.2959 16755.3902 -27246.7178
ENERGY: 920 291.4405 738.0627 2831.0473 0.0000 -203214.4083 22656.6945 27.5477 0.0000 0.0000 -176669.6157 0.0000 -176669.6157 -176669.6157 0.0000 16832.7201 -4689.1935 534946.2959 16832.7201 -4689.1935
ENERGY: 940 182.9097 668.0704 2825.8643 0.0000 -203540.5416 22787.5163 28.5042 0.0000 0.0000 -177047.6767 0.0000 -177047.6767 -177047.6767 0.0000 16882.5404 -4658.3001 534946.2959 16882.5404 -4658.3001
ENERGY: 960 166.9907 651.6920 2818.2051 0.0000 -203870.4528 22920.6775 29.4689 0.0000 0.0000 -177283.4186 0.0000 -177283.4186 -177283.4186 0.0000 16927.7547 -4641.5082 534946.2959 16927.7547 -4641.5082
ENERGY: 980 172.0102 669.6670 2817.8269 0.0000 -204127.4667 23041.5284 30.4983 0.0000 0.0000 -177395.9360 0.0000 -177395.9360 -177395.9360 0.0000 17003.2668 -4598.2619 534946.2959 17003.2668 -4598.2619
ENERGY: 1000 192.4596 670.4251 2817.2454 0.0000 -204365.1608 23130.0293 31.1579 0.0000 0.0000 -177523.8435 0.0000 -177523.8435 -177523.8435 0.0000 17032.5046 -4597.8210 534946.2959 17032.5046 -4597.8210
TCL: Setting parameter constraintScaling to 0
TCL: Minimizing for 5000 steps
ETITLE: TS BOND ANGLE DIHED IMPRP ELECT VDW BOUNDARY MISC KINETIC TOTAL TEMP POTENTIAL TOTAL3 TEMPAVG PRESSURE GPRESSURE VOLUME PRESSAVG GPRESSAVG
ENERGY: 1000 192.4596 670.4251 2817.2454 0.0000 -204365.1608 23130.0293 0.0000 0.0000 0.0000 -177555.0015 0.0000 -177555.0015 -177555.0015 0.0000 17057.8440 -27270.8066 534946.2959 17057.8440 -27270.8066
ENERGY: 2000 252.0404 680.9997 2801.5924 0.0000 -214870.2812 27887.2549 0.0000 0.0000 0.0000 -183248.3938 0.0000 -183248.3938 -183248.3938 0.0000 19571.2662 -3240.1248 534946.2959 19571.2662 -3240.1248
ENERGY: 3000 168.3467 668.3116 2793.3956 0.0000 -217417.3667 28815.2611 0.0000 0.0000 0.0000 -184972.0518 0.0000 -184972.0518 -184972.0518 0.0000 20061.5511 -3023.9832 534946.2959 20061.5511 -3023.9832
ENERGY: 4000 166.5353 666.7236 2788.4877 0.0000 -218847.0562 29436.8486 0.0000 0.0000 0.0000 -185788.4608 0.0000 -185788.4608 -185788.4608 0.0000 20410.3133 -2822.6931 534946.2959 20410.3133 -2822.6931
ENERGY: 5000 166.3978 668.1664 2790.9316 0.0000 -219542.2660 29734.7598 0.0000 0.0000 0.0000 -186182.0106 0.0000 -186182.0106 -186182.0106 0.0000 20568.5824 -2726.3042 534946.2959 20568.5824 -2726.3042
ENERGY: 6000 166.7059 670.0395 2786.4487 0.0000 -220002.8814 29919.7927 0.0000 0.0000 0.0000 -186459.8945 0.0000 -186459.8945 -186459.8945 0.0000 20668.8724 -2674.5265 534946.2959 20668.8724 -2674.5265
