Info: SIMULATION PARAMETERS:
Info: TIMESTEP               1
Info: NUMBER OF STEPS        0
Info: STEPS PER CYCLE        10
Info: PERIODIC CELL BASIS 1  72.449 0 0
Info: PERIODIC CELL BASIS 2  0 93.247 0
Info: PERIODIC CELL BASIS 3  0 0 79.185
Info: PERIODIC CELL CENTER   -0.248 -0.156 -0.047
Info: WRAPPING WATERS AROUND PERIODIC BOUNDARIES ON OUTPUT.
Info: WRAPPING ALL CLUSTERS AROUND PERIODIC BOUNDARIES ON OUTPUT.
Info: FIRST LDB TIMESTEP     50
Info: LAST LDB TIMESTEP     -1
Info: HOM BACKGROUND SCALING 1
Info: PME BACKGROUND SCALING 1
Info: MIN ATOMS PER PATCH    40
Info: VELOCITY FILE          ../replicas/rep121/equilibration/eq1.vel
Info: CENTER OF MASS MOVING INITIALLY? NO
Info: DIELECTRIC             1
Info: EXCLUDE                SCALED ONE-FOUR
Info: 1-4 ELECTROSTATICS SCALED BY 0.833333
Info: MODIFIED 1-4 VDW PARAMETERS WILL BE USED
Info: DCD FILENAME           ../replicas/rep121/equilibration/eq2.dcd
Info: DCD FREQUENCY          5000
Info: DCD FIRST STEP         5000
Info: DCD FILE WILL CONTAIN UNIT CELL DATA
Info: XST FILENAME           ../replicas/rep121/equilibration/eq2.xst
Info: XST FREQUENCY          5000
Info: NO VELOCITY DCD OUTPUT
Info: NO FORCE DCD OUTPUT
Info: OUTPUT FILENAME        ../replicas/rep121/equilibration/eq2
Info: RESTART FILENAME       ../replicas/rep121/equilibration/eq2.restart
Info: RESTART FREQUENCY      5000
Info: BINARY RESTART FILES WILL BE USED
Info: SWITCHING ACTIVE
Info: SWITCHING ON           10
Info: SWITCHING OFF          12
Info: PAIRLIST DISTANCE      13.5
Info: PAIRLIST SHRINK RATE   0.01
Info: PAIRLIST GROW RATE     0.01
Info: PAIRLIST TRIGGER       0.3
Info: PAIRLISTS PER CYCLE    2
Info: PAIRLISTS ENABLED
Info: MARGIN                 0.48
Info: HYDROGEN GROUP CUTOFF  2.5
Info: PATCH DIMENSION        16.48
Info: ENERGY OUTPUT STEPS    500
Info: CROSSTERM ENERGY INCLUDED IN DIHEDRAL
Info: TIMING OUTPUT STEPS    5000
Info: PRESSURE OUTPUT STEPS  500
Info: HARMONIC CONSTRAINTS ACTIVE
Info: HARMONIC CONS EXP      2
Info: HARMONIC CONS SCALING  10
Info: LANGEVIN DYNAMICS ACTIVE
Info: LANGEVIN TEMPERATURE   300
Info: LANGEVIN USING BBK INTEGRATOR
Info: LANGEVIN DAMPING COEFFICIENT IS 5 INVERSE PS
Info: LANGEVIN DYNAMICS NOT APPLIED TO HYDROGENS
Info: BERENDSEN PRESSURE COUPLING ACTIVE
Info:     TARGET PRESSURE IS 1 BAR
Info:     COMPRESSIBILITY ESTIMATE IS 4.57e-05 BAR^(-1)
Info:     RELAXATION TIME IS 100 FS
Info:     APPLIED EVERY 2 STEPS
Info:     PRESSURE CONTROL IS GROUP-BASED
Info:       CELL FLUCTUATION IS ISOTROPIC
Info: PARTICLE MESH EWALD (PME) ACTIVE
Info: PME TOLERANCE               1e-06
Info: PME EWALD COEFFICIENT       0.257952
Info: PME INTERPOLATION ORDER     4
Info: PME GRID DIMENSIONS         80 96 80
Info: PME MAXIMUM GRID SPACING    1
Info: FULL ELECTROSTATIC EVALUATION FREQUENCY      2
Info: USING VERLET I (r-RESPA) MTS SCHEME.
Info: C1 SPLITTING OF LONG RANGE ELECTROSTATICS
Info: PLACING ATOMS IN PATCHES BY HYDROGEN GROUPS
Info: RIGID BONDS TO HYDROGEN : WATER
Info:         ERROR TOLERANCE : 1e-05
Info:          MAX ITERATIONS : 100
Info: RIGID WATER USING SETTLE ALGORITHM
Info: RANDOM NUMBER SEED     1503714830
Info: USE HYDROGEN BONDS?    NO
Info: Using AMBER format force field!
Info: AMBER PARM FILE        ../build/complex.top
Info: COORDINATE PDB         ../replicas/rep121/equilibration/eq1.coor
Info: Exclusions in PARM file will be ignored!
Info: SCNB (VDW SCALING)     2
Info: USING ARITHMETIC MEAN TO COMBINE L-J SIGMA PARAMETERS
Info: SUMMARY OF PARAMETERS:
Info: 71 BONDS
Info: 145 ANGLES
Info: 76 DIHEDRAL
Info: 0 IMPROPER
Info: 0 CROSSTERM
Info: 0 VDW
Info: 190 VDW_PAIRS
Info: 0 NBTHOLE_PAIRS
Info: STRUCTURE SUMMARY:
Info: 49394 ATOMS
Info: 49448 BONDS
Info: 8698 ANGLES
Info: 18780 DIHEDRALS
Info: 0 IMPROPERS
Info: 0 CROSSTERMS
Info: 0 EXCLUSIONS
Info: 2336 CONSTRAINTS
Info: 44667 RIGID BONDS
Info: 103515 DEGREES OF FREEDOM
Info: 17225 HYDROGEN GROUPS
Info: 4 ATOMS IN LARGEST HYDROGEN GROUP
Info: 17225 MIGRATION GROUPS
Info: 4 ATOMS IN LARGEST MIGRATION GROUP
Info: TOTAL MASS = 301478 amu
Info: TOTAL CHARGE = 1.00115e-05 e
Info: MASS DENSITY = 0.935846 g/cm^3
Info: ATOM DENSITY = 0.0923345 atoms/A^3
Info: ADDED 70656 IMPLICIT EXCLUSIONS
Info: NONBONDED TABLE R-SQUARED SPACING: 0.0625
Info: NONBONDED TABLE SIZE: 769 POINTS
Info: REMOVING COM VELOCITY 0.0227128 -0.00654896 -0.00859412
TCL: Running for 5000 steps
ETITLE: TS BOND ANGLE DIHED IMPRP ELECT VDW BOUNDARY MISC KINETIC TOTAL TEMP POTENTIAL TOTAL3 TEMPAVG PRESSURE GPRESSURE VOLUME PRESSAVG GPRESSAVG
ENERGY: 0 388.0939 1231.2109 2910.8525 0.0000 -212872.3406 29621.4824 0.0000 0.0000 10030.4932 -168690.2077 97.5235 -178720.7009 -168680.5198 97.5235 -2309.9821 -2406.5091 534946.2959 -2309.9821 -2406.5091
ENERGY: 1000 1252.3165 1971.3644 3110.7502 0.0000 -193508.4166 26624.0107 727.4006 0.0000 24149.8058 -135672.7684 234.8014 -159822.5742 -135645.6509 218.4059 -64.5287 -35.7258 523404.1041 -7.6204 -7.8998
ENERGY: 2000 1455.3303 2122.2570 3114.8785 0.0000 -184663.8259 23667.5775 778.6637 0.0000 27933.6010 -125591.5180 271.5902 -153525.1190 -125553.9651 263.4385 -87.6780 -59.3412 517038.7107 -16.1842 -16.4458
ENERGY: 3000 1462.0314 2147.1410 3150.3759 0.0000 -179655.7874 21718.3997 806.5381 0.0000 29782.0328 -120589.2683 289.5619 -150371.3012 -120535.3721 283.5128 -36.1461 -26.4029 511836.1119 -25.5107 -24.7678
ENERGY: 4000 1503.3899 2266.3226 3138.7585 0.0000 -176833.5150 20750.2935 786.0429 0.0000 29986.1334 -118402.5740 291.5463 -148388.7074 -118360.9570 291.8288 -69.3183 35.9318 509531.5321 -8.8894 -8.9694
ENERGY: 5000 1615.9717 2230.7472 3129.0058 0.0000 -175964.1446 20521.9255 788.4138 0.0000 30570.2239 -117107.8566 297.2253 -147678.0806 -117060.5755 296.6594 -32.5232 12.6885 509154.6757 9.0426 9.3036
TCL: Setting parameter constraintScaling to 5.0
TCL: Running for 5000 steps
ETITLE: TS BOND ANGLE DIHED IMPRP ELECT VDW BOUNDARY MISC KINETIC TOTAL TEMP POTENTIAL TOTAL3 TEMPAVG PRESSURE GPRESSURE VOLUME PRESSAVG GPRESSAVG
ENERGY: 5000 1615.9717 2230.7472 3129.0058 0.0000 -175964.1446 20521.9255 394.2069 0.0000 30568.1469 -117504.1406 297.2051 -148072.2875 -117460.8448 297.2051 -85.4293 -34.7468 509154.6757 -85.4293 -34.7468
ENERGY: 6000 1622.2445 2268.9703 3158.4489 0.0000 -175416.2839 20169.9710 659.6438 0.0000 30495.4809 -117041.5245 296.4986 -147537.0055 -116990.9094 297.4729 -65.6555 -11.2386 507682.1734 5.1400 4.9741
ENERGY: 7000 1598.9469 2319.3578 3169.7268 0.0000 -175524.2668 20297.2798 626.5517 0.0000 30734.0077 -116778.3961 298.8177 -147512.4038 -116726.9395 299.2279 -100.6448 11.0884 504417.8604 -10.1650 -10.0369
ENERGY: 8000 1558.2731 2316.8672 3154.7902 0.0000 -175711.2476 20408.1393 661.8451 0.0000 30860.8471 -116750.4855 300.0509 -147611.3326 -116698.3974 300.0867 -122.8918 21.0258 503489.2520 8.1927 8.1712
ENERGY: 9000 1607.8943 2311.9555 3174.2785 0.0000 -175685.9993 20230.3522 633.2491 0.0000 30704.0715 -117024.1981 298.5266 -147728.2696 -116974.6758 299.2483 44.9516 -25.3264 502724.3789 -2.1338 -2.1537
ENERGY: 10000 1606.1849 2303.5025 3132.7959 0.0000 -175958.3750 20090.1216 658.6483 0.0000 30724.1184 -117443.0034 298.7215 -148167.1219 -117396.3106 298.6787 52.5796 19.4911 500530.7417 -7.2766 -6.9069
TCL: Setting parameter constraintScaling to 2.5
TCL: Running for 5000 steps
ETITLE: TS BOND ANGLE DIHED IMPRP ELECT VDW BOUNDARY MISC KINETIC TOTAL TEMP POTENTIAL TOTAL3 TEMPAVG PRESSURE GPRESSURE VOLUME PRESSAVG GPRESSAVG
ENERGY: 10000 1606.1849 2303.5025 3132.7959 0.0000 -175958.3750 20090.1216 329.3241 0.0000 30722.0652 -117774.3808 298.7016 -148496.4460 -117730.5888 298.7016 -12.5902 -50.6025 500530.7417 -12.5902 -50.6025
ENERGY: 11000 1634.0405 2368.5500 3197.6094 0.0000 -175705.4165 20018.9998 505.0960 0.0000 30828.3321 -117152.7887 299.7348 -147981.1208 -117116.6295 299.6264 -50.4462 16.9515 500972.5519 5.7425 5.5411
ENERGY: 12000 1632.6801 2326.9551 3175.2887 0.0000 -175772.1421 20134.6498 519.9455 0.0000 30713.2829 -117269.3400 298.6162 -147982.6229 -117223.8203 299.7056 -53.9905 -15.1083 499499.5947 -13.5799 -13.3186
ENERGY: 13000 1591.7310 2334.7034 3166.7954 0.0000 -175784.9270 20088.2722 500.5274 0.0000 30914.5366 -117188.3611 300.5729 -148102.8977 -117137.5719 299.3254 -131.0422 -77.2572 500139.3460 0.1472 0.4227
ENERGY: 14000 1626.4069 2305.9398 3180.4321 0.0000 -175238.8606 19803.7818 512.5934 0.0000 30864.2722 -116945.4344 300.0842 -147809.7066 -116908.3762 299.5282 17.8086 1.5210 500064.3463 -6.4626 -5.7310
ENERGY: 15000 1619.7258 2338.0020 3153.8187 0.0000 -175800.1155 20169.6127 509.0219 0.0000 30514.6199 -117495.3145 296.6846 -148009.9345 -117457.7742 298.7408 -62.7479 52.7542 499601.4802 5.4550 4.9677
TCL: Setting parameter constraintScaling to 1.25
TCL: Running for 5000 steps
ETITLE: TS BOND ANGLE DIHED IMPRP ELECT VDW BOUNDARY MISC KINETIC TOTAL TEMP POTENTIAL TOTAL3 TEMPAVG PRESSURE GPRESSURE VOLUME PRESSAVG GPRESSAVG
ENERGY: 15000 1619.7258 2338.0020 3153.8187 0.0000 -175800.1155 20169.6127 254.5110 0.0000 30512.5907 -117751.8547 296.6649 -148264.4454 -117706.3058 296.6649 -129.4477 -14.6379 499601.4802 -129.4477 -14.6379
ENERGY: 16000 1644.1878 2290.2246 3183.6045 0.0000 -175672.7569 20048.8420 406.8065 0.0000 30717.1817 -117381.9097 298.6541 -148099.0914 -117340.1449 298.9395 -70.4947 -21.6476 498839.4303 6.8610 7.1183
ENERGY: 17000 1632.7848 2378.1219 3174.1123 0.0000 -175820.0916 20194.0365 414.8083 0.0000 30827.5389 -117198.6889 299.7271 -148026.2278 -117144.3989 300.0201 -48.6376 9.3617 499772.6430 5.6192 5.6051
ENERGY: 18000 1642.8089 2341.0726 3189.7828 0.0000 -175567.5907 20097.2083 411.5334 0.0000 30605.6410 -117279.5437 297.5696 -147885.1847 -117240.9868 299.8227 -19.1116 4.4501 499947.6934 -1.3699 -1.3144
ENERGY: 19000 1644.7420 2316.5159 3199.8978 0.0000 -175720.4459 20054.9937 379.1970 0.0000 30760.6616 -117364.4378 299.0768 -148125.0994 -117316.9004 299.1008 -94.4395 -48.1965 499349.1858 -1.3705 -1.5603
ENERGY: 20000 1673.9378 2390.3834 3236.0506 0.0000 -175589.6921 19943.5056 415.7565 0.0000 30875.3958 -117054.6623 300.1924 -147930.0582 -117011.6002 300.9115 38.0543 49.7014 499275.7606 0.4486 0.5675
TCL: Setting parameter constraintScaling to 0.625
TCL: Running for 5000 steps
ETITLE: TS BOND ANGLE DIHED IMPRP ELECT VDW BOUNDARY MISC KINETIC TOTAL TEMP POTENTIAL TOTAL3 TEMPAVG PRESSURE GPRESSURE VOLUME PRESSAVG GPRESSAVG
ENERGY: 20000 1673.9378 2390.3834 3236.0506 0.0000 -175589.6921 19943.5056 207.8782 0.0000 30873.3727 -117264.5637 300.1727 -148137.9364 -117222.9666 300.1727 -40.0333 -30.8478 499275.7606 -40.0333 -30.8478
ENERGY: 21000 1574.4883 2406.2807 3215.1647 0.0000 -175963.7447 20229.1508 303.0908 0.0000 30886.8536 -117348.7157 300.3038 -148235.5693 -117299.4310 299.6718 -32.6356 12.7453 498645.2565 -1.2147 -0.6458
ENERGY: 22000 1589.0068 2424.5162 3195.1146 0.0000 -175767.8422 20121.0168 313.8913 0.0000 30861.6933 -117262.6033 300.0591 -148124.2966 -117217.0241 301.0308 -62.0360 -54.4053 497638.5112 -2.4782 -2.5820
ENERGY: 23000 1590.7593 2429.1910 3208.0839 0.0000 -175851.6712 20018.5770 321.2998 0.0000 30700.2889 -117583.4712 298.4898 -148283.7601 -117551.3677 299.9572 -88.7427 -55.2335 497896.6659 -7.5777 -8.0226
ENERGY: 24000 1664.1276 2450.8945 3224.8796 0.0000 -175767.6380 19978.3834 295.9215 0.0000 30720.6918 -117432.7397 298.6882 -148153.4314 -117388.0071 300.0064 -22.3936 22.5730 497902.9220 15.3706 15.5272
ENERGY: 25000 1649.3613 2347.6830 3197.8757 0.0000 -175815.0160 20155.2766 304.3062 0.0000 30643.1418 -117517.3715 297.9342 -148160.5133 -117472.0397 300.0473 -44.2189 -0.8016 498971.3909 1.4873 1.4083
TCL: Setting parameter constraintScaling to 0.3125
TCL: Running for 5000 steps
ETITLE: TS BOND ANGLE DIHED IMPRP ELECT VDW BOUNDARY MISC KINETIC TOTAL TEMP POTENTIAL TOTAL3 TEMPAVG PRESSURE GPRESSURE VOLUME PRESSAVG GPRESSAVG
ENERGY: 25000 1649.3613 2347.6830 3197.8757 0.0000 -175815.0160 20155.2766 152.1531 0.0000 30641.0898 -117671.5765 297.9143 -148312.6664 -117630.2916 297.9143 -60.9490 -22.1873 498971.3909 -60.9490 -22.1873
ENERGY: 26000 1576.0847 2385.8793 3209.5605 0.0000 -175893.4174 20048.0631 240.4472 0.0000 30992.2891 -117441.0936 301.3289 -148433.3826 -117391.2708 298.7442 -70.2859 -22.2420 498805.3608 -2.6183 -2.6552
ENERGY: 27000 1603.9686 2444.1827 3206.7907 0.0000 -175363.7814 19802.6748 234.7458 0.0000 30863.5590 -117207.8599 300.0773 -148071.4189 -117162.7197 300.4593 -10.1840 -64.8742 497155.7292 -0.3400 -0.6847
ENERGY: 28000 1646.8925 2367.8505 3188.8732 0.0000 -174933.7702 19602.2655 245.8851 0.0000 31169.8907 -116712.1127 303.0556 -147882.0034 -116655.0296 300.6880 74.2614 18.2490 498089.2121 8.5578 8.5024
ENERGY: 29000 1653.0369 2327.7912 3213.4809 0.0000 -175369.2462 19838.6087 236.0231 0.0000 30902.3353 -117197.9701 300.4543 -148100.3054 -117153.3358 300.1604 -75.9770 -81.9687 499040.0946 9.5665 9.4147
ENERGY: 30000 1561.5505 2459.7493 3191.9785 0.0000 -175076.9342 19831.3376 259.6356 0.0000 30975.6941 -116796.9885 301.1675 -147772.6827 -116743.7509 301.2271 15.5245 -10.4466 498866.2657 4.9771 5.5380
TCL: Setting parameter constraintScaling to 0.15625
TCL: Running for 5000 steps
ETITLE: TS BOND ANGLE DIHED IMPRP ELECT VDW BOUNDARY MISC KINETIC TOTAL TEMP POTENTIAL TOTAL3 TEMPAVG PRESSURE GPRESSURE VOLUME PRESSAVG GPRESSAVG
ENERGY: 30000 1561.5505 2459.7493 3191.9785 0.0000 -175076.9342 19831.3376 129.8178 0.0000 30973.6324 -116928.8681 301.1475 -147902.5005 -116884.9310 301.1475 8.5401 -21.5867 498866.2657 8.5401 -21.5867
ENERGY: 31000 1554.1085 2426.9519 3234.3792 0.0000 -175664.5911 19894.6585 186.3342 0.0000 30823.8025 -117544.3563 299.6907 -148368.1588 -117498.5263 299.8692 -31.6188 -57.2848 497109.8202 -18.6594 -18.7236
ENERGY: 32000 1652.3297 2441.6652 3192.9281 0.0000 -175757.9231 19971.7207 200.6023 0.0000 30696.1746 -117602.5025 298.4498 -148298.6771 -117557.7017 299.5777 -30.3599 -23.7824 497411.1196 2.3288 2.2351
ENERGY: 33000 1675.3276 2336.9969 3256.0848 0.0000 -175903.2196 20129.3237 200.8277 0.0000 30990.5902 -117314.0687 301.3124 -148304.6589 -117274.1592 300.8137 96.2851 80.7459 496827.2618 2.6880 2.4734
ENERGY: 34000 1626.4884 2378.7354 3198.4730 0.0000 -175677.6509 19992.3192 198.9251 0.0000 30923.4334 -117359.2765 300.6594 -148282.7099 -117325.3209 300.5376 39.4189 -22.8059 496666.2482 -14.5330 -14.3379
ENERGY: 35000 1664.7268 2453.6294 3206.3403 0.0000 -175246.1846 19934.0722 199.6690 0.0000 30831.3440 -116956.4029 299.7641 -147787.7469 -116911.4869 300.8359 53.0316 1.6550 497564.8454 -0.0615 0.0096
TCL: Setting parameter constraintScaling to 0.078125
TCL: Running for 5000 steps
ETITLE: TS BOND ANGLE DIHED IMPRP ELECT VDW BOUNDARY MISC KINETIC TOTAL TEMP POTENTIAL TOTAL3 TEMPAVG PRESSURE GPRESSURE VOLUME PRESSAVG GPRESSAVG
ENERGY: 35000 1664.7268 2453.6294 3206.3403 0.0000 -175246.1846 19934.0722 99.8345 0.0000 30829.2693 -117058.3121 299.7439 -147887.5814 -117015.8907 299.7439 54.9828 1.7050 497564.8454 54.9828 1.7050
ENERGY: 36000 1634.9828 2473.5771 3232.8118 0.0000 -175533.0308 19866.5117 157.9151 0.0000 30947.1008 -117220.1315 300.8895 -148167.2323 -117174.6645 300.8027 -96.2238 -20.0863 497651.3789 2.1872 2.2821
ENERGY: 37000 1565.5343 2430.7297 3214.4564 0.0000 -175483.4782 20028.2571 155.4979 0.0000 30821.4670 -117267.5358 299.6680 -148089.0028 -117215.4929 300.2309 -17.4849 64.8438 498242.6723 11.3603 11.3895
ENERGY: 38000 1623.2799 2401.6847 3215.3030 0.0000 -175766.1639 20062.2581 156.4952 0.0000 30813.9335 -117493.2096 299.5948 -148307.1431 -117449.3296 300.2368 -14.7345 -17.4423 497789.5206 3.9334 3.8383
ENERGY: 39000 1678.1229 2331.5228 3202.5999 0.0000 -175907.1862 20190.7172 158.0891 0.0000 30832.2570 -117513.8772 299.7729 -148346.1342 -117465.7288 299.1501 76.5825 67.8898 497075.3337 9.8405 9.8626
ENERGY: 40000 1684.9477 2477.0550 3224.0964 0.0000 -175930.6966 20167.9388 179.4550 0.0000 30833.2963 -117363.9074 299.7830 -148197.2037 -117328.3284 300.8651 58.1102 42.0449 496966.2371 1.4739 1.4800
TCL: Setting parameter constraintScaling to 0.0390625
TCL: Running for 5000 steps
ETITLE: TS BOND ANGLE DIHED IMPRP ELECT VDW BOUNDARY MISC KINETIC TOTAL TEMP POTENTIAL TOTAL3 TEMPAVG PRESSURE GPRESSURE VOLUME PRESSAVG GPRESSAVG
ENERGY: 40000 1684.9477 2477.0550 3224.0964 0.0000 -175930.6966 20167.9388 89.7275 0.0000 30831.2503 -117455.6808 299.7631 -148286.9312 -117416.9606 299.7631 54.6818 36.7467 496966.2371 54.6818 36.7467
ENERGY: 41000 1671.8447 2374.7020 3241.9321 0.0000 -175680.8803 19982.9571 117.2762 0.0000 30774.5815 -117517.5868 299.2122 -148292.1683 -117463.2593 299.8397 -59.0761 -42.0296 497303.0519 -4.4965 -4.4296
ENERGY: 42000 1662.4572 2390.8336 3235.1288 0.0000 -175984.3108 20113.7804 125.0592 0.0000 30867.4176 -117589.6339 300.1148 -148457.0515 -117546.1057 299.8898 -86.3177 -31.1402 496258.5295 -3.3466 -3.6529
ENERGY: 43000 1658.5706 2411.7118 3234.3528 0.0000 -176148.6161 20262.1797 122.0467 0.0000 30598.2301 -117861.5244 297.4976 -148459.7545 -117828.2196 299.2402 -100.1759 -0.6809 497187.2521 -0.7304 -0.6735
ENERGY: 44000 1666.2650 2370.6775 3204.2059 0.0000 -175347.7312 19847.0158 123.7288 0.0000 30806.8289 -117329.0093 299.5257 -148135.8382 -117280.1515 300.5232 -197.3814 -130.2009 497336.5642 8.4383 8.7364
ENERGY: 45000 1673.3099 2430.6202 3194.3850 0.0000 -175697.0733 20062.6000 137.8889 0.0000 30912.9614 -117285.3079 300.5576 -148198.2693 -117237.1681 300.8094 -6.7612 -28.1516 497139.0300 0.8177 0.9113
TCL: Setting parameter constraintScaling to 0.01953125
TCL: Running for 5000 steps
ETITLE: TS BOND ANGLE DIHED IMPRP ELECT VDW BOUNDARY MISC KINETIC TOTAL TEMP POTENTIAL TOTAL3 TEMPAVG PRESSURE GPRESSURE VOLUME PRESSAVG GPRESSAVG
ENERGY: 45000 1673.3099 2430.6202 3194.3850 0.0000 -175697.0733 20062.6000 68.9444 0.0000 30910.9233 -117356.2905 300.5378 -148267.2137 -117313.7276 300.5378 -2.1065 -30.7312 497139.0300 -2.1065 -30.7312
ENERGY: 46000 1617.8134 2373.9014 3187.6521 0.0000 -175469.7825 19954.9197 79.1944 0.0000 30684.2875 -117572.0138 298.3343 -148256.3014 -117527.3287 299.1647 1.5995 56.2867 496395.3729 -9.3890 -9.1492
ENERGY: 47000 1659.4863 2393.8246 3230.0107 0.0000 -175847.8283 19988.4340 88.7180 0.0000 30719.9058 -117767.4490 298.6806 -148487.3547 -117713.8287 299.3149 -121.3531 -109.0948 496460.2161 -0.9632 -1.1026
ENERGY: 48000 1635.7026 2421.0765 3192.4570 0.0000 -175998.2397 20093.4678 85.9182 0.0000 30710.0163 -117859.6013 298.5844 -148569.6176 -117812.7192 299.1519 -12.5005 -5.0041 496510.9702 9.7175 10.1361
ENERGY: 49000 1630.6382 2417.6795 3216.4139 0.0000 -176063.0853 20237.0832 90.2646 0.0000 30781.9624 -117689.0435 299.2839 -148471.0059 -117640.7595 299.2935 33.3019 37.0361 497603.2967 1.5417 1.6320
ENERGY: 50000 1664.2044 2424.5396 3209.6317 0.0000 -175930.4135 20246.9428 95.6329 0.0000 30860.5068 -117428.9554 300.0476 -148289.4622 -117391.9486 299.9790 31.5660 23.7554 497534.4466 1.0064 1.3684
TCL: Setting parameter constraintScaling to 0
TCL: Running for 5000 steps
ETITLE: TS BOND ANGLE DIHED IMPRP ELECT VDW BOUNDARY MISC KINETIC TOTAL TEMP POTENTIAL TOTAL3 TEMPAVG PRESSURE GPRESSURE VOLUME PRESSAVG GPRESSAVG
ENERGY: 50000 1664.2044 2424.5396 3209.6317 0.0000 -175930.4135 20246.9428 0.0000 0.0000 30858.4585 -117526.6365 300.0277 -148385.0951 -117483.8266 300.0277 27.9261 17.7002 497534.4466 27.9261 17.7002
ENERGY: 51000 1648.0947 2384.0690 3189.2077 0.0000 -176020.6940 20108.7683 0.0000 0.0000 30733.6226 -117956.9316 298.8139 -148690.5543 -117915.9493 299.3346 -54.5696 -57.1061 497041.2782 10.3133 9.7697
ENERGY: 52000 1607.3808 2366.7891 3189.6883 0.0000 -175762.5073 20057.2434 0.0000 0.0000 30710.1424 -117831.2633 298.5856 -148541.4058 -117786.5213 299.0688 -48.2479 46.1262 497652.4307 1.7717 2.0302
ENERGY: 53000 1630.7435 2419.0061 3194.1780 0.0000 -176124.7101 20288.3937 0.0000 0.0000 30984.6942 -117607.6946 301.2550 -148592.3888 -117561.1285 299.7307 23.6349 6.8386 498099.5608 -6.5690 -6.3306
ENERGY: 54000 1614.7041 2453.5583 3220.6510 0.0000 -175719.3944 19933.7970 0.0000 0.0000 30672.2925 -117824.3913 298.2176 -148496.6838 -117794.1723 299.5721 64.9306 -42.4332 497267.9622 -1.6083 -1.9369
ENERGY: 55000 1599.7128 2465.6740 3199.7287 0.0000 -175372.6779 19801.8462 0.0000 0.0000 30838.9747 -117466.7414 299.8382 -148305.7161 -117420.7623 300.6309 -44.4631 4.5501 498216.5076 1.5920 1.9316
