Info: SIMULATION PARAMETERS:
Info: TIMESTEP               1
Info: NUMBER OF STEPS        0
Info: STEPS PER CYCLE        10
Info: PERIODIC CELL BASIS 1  72.449 0 0
Info: PERIODIC CELL BASIS 2  0 93.247 0
Info: PERIODIC CELL BASIS 3  0 0 79.185
Info: PERIODIC CELL CENTER   -0.248 -0.156 -0.047
Info: WRAPPING WATERS AROUND PERIODIC BOUNDARIES ON OUTPUT.
Info: WRAPPING ALL CLUSTERS AROUND PERIODIC BOUNDARIES ON OUTPUT.
Info: FIRST LDB TIMESTEP     50
Info: LAST LDB TIMESTEP     -1
Info: HOM BACKGROUND SCALING 1
Info: PME BACKGROUND SCALING 1
Info: MIN ATOMS PER PATCH    40
Info: VELOCITY FILE          ../replicas/rep53/equilibration/eq1.vel
Info: CENTER OF MASS MOVING INITIALLY? NO
Info: DIELECTRIC             1
Info: EXCLUDE                SCALED ONE-FOUR
Info: 1-4 ELECTROSTATICS SCALED BY 0.833333
Info: MODIFIED 1-4 VDW PARAMETERS WILL BE USED
Info: DCD FILENAME           ../replicas/rep53/equilibration/eq2.dcd
Info: DCD FREQUENCY          5000
Info: DCD FIRST STEP         5000
Info: DCD FILE WILL CONTAIN UNIT CELL DATA
Info: XST FILENAME           ../replicas/rep53/equilibration/eq2.xst
Info: XST FREQUENCY          5000
Info: NO VELOCITY DCD OUTPUT
Info: NO FORCE DCD OUTPUT
Info: OUTPUT FILENAME        ../replicas/rep53/equilibration/eq2
Info: RESTART FILENAME       ../replicas/rep53/equilibration/eq2.restart
Info: RESTART FREQUENCY      5000
Info: BINARY RESTART FILES WILL BE USED
Info: SWITCHING ACTIVE
Info: SWITCHING ON           10
Info: SWITCHING OFF          12
Info: PAIRLIST DISTANCE      13.5
Info: PAIRLIST SHRINK RATE   0.01
Info: PAIRLIST GROW RATE     0.01
Info: PAIRLIST TRIGGER       0.3
Info: PAIRLISTS PER CYCLE    2
Info: PAIRLISTS ENABLED
Info: MARGIN                 0.48
Info: HYDROGEN GROUP CUTOFF  2.5
Info: PATCH DIMENSION        16.48
Info: ENERGY OUTPUT STEPS    500
Info: CROSSTERM ENERGY INCLUDED IN DIHEDRAL
Info: TIMING OUTPUT STEPS    5000
Info: PRESSURE OUTPUT STEPS  500
Info: HARMONIC CONSTRAINTS ACTIVE
Info: HARMONIC CONS EXP      2
Info: HARMONIC CONS SCALING  10
Info: LANGEVIN DYNAMICS ACTIVE
Info: LANGEVIN TEMPERATURE   300
Info: LANGEVIN USING BBK INTEGRATOR
Info: LANGEVIN DAMPING COEFFICIENT IS 5 INVERSE PS
Info: LANGEVIN DYNAMICS NOT APPLIED TO HYDROGENS
Info: BERENDSEN PRESSURE COUPLING ACTIVE
Info:     TARGET PRESSURE IS 1 BAR
Info:     COMPRESSIBILITY ESTIMATE IS 4.57e-05 BAR^(-1)
Info:     RELAXATION TIME IS 100 FS
Info:     APPLIED EVERY 2 STEPS
Info:     PRESSURE CONTROL IS GROUP-BASED
Info:       CELL FLUCTUATION IS ISOTROPIC
Info: PARTICLE MESH EWALD (PME) ACTIVE
Info: PME TOLERANCE               1e-06
Info: PME EWALD COEFFICIENT       0.257952
Info: PME INTERPOLATION ORDER     4
Info: PME GRID DIMENSIONS         80 96 80
Info: PME MAXIMUM GRID SPACING    1
Info: FULL ELECTROSTATIC EVALUATION FREQUENCY      2
Info: USING VERLET I (r-RESPA) MTS SCHEME.
Info: C1 SPLITTING OF LONG RANGE ELECTROSTATICS
Info: PLACING ATOMS IN PATCHES BY HYDROGEN GROUPS
Info: RIGID BONDS TO HYDROGEN : WATER
Info:         ERROR TOLERANCE : 1e-05
Info:          MAX ITERATIONS : 100
Info: RIGID WATER USING SETTLE ALGORITHM
Info: RANDOM NUMBER SEED     1503693601
Info: USE HYDROGEN BONDS?    NO
Info: Using AMBER format force field!
Info: AMBER PARM FILE        ../build/complex.top
Info: COORDINATE PDB         ../replicas/rep53/equilibration/eq1.coor
Info: Exclusions in PARM file will be ignored!
Info: SCNB (VDW SCALING)     2
Info: USING ARITHMETIC MEAN TO COMBINE L-J SIGMA PARAMETERS
Info: SUMMARY OF PARAMETERS:
Info: 71 BONDS
Info: 145 ANGLES
Info: 76 DIHEDRAL
Info: 0 IMPROPER
Info: 0 CROSSTERM
Info: 0 VDW
Info: 190 VDW_PAIRS
Info: 0 NBTHOLE_PAIRS
Info: STRUCTURE SUMMARY:
Info: 49394 ATOMS
Info: 49448 BONDS
Info: 8698 ANGLES
Info: 18780 DIHEDRALS
Info: 0 IMPROPERS
Info: 0 CROSSTERMS
Info: 0 EXCLUSIONS
Info: 2336 CONSTRAINTS
Info: 44667 RIGID BONDS
Info: 103515 DEGREES OF FREEDOM
Info: 17225 HYDROGEN GROUPS
Info: 4 ATOMS IN LARGEST HYDROGEN GROUP
Info: 17225 MIGRATION GROUPS
Info: 4 ATOMS IN LARGEST MIGRATION GROUP
Info: TOTAL MASS = 301478 amu
Info: TOTAL CHARGE = 1.00115e-05 e
Info: MASS DENSITY = 0.935846 g/cm^3
Info: ATOM DENSITY = 0.0923345 atoms/A^3
Info: ADDED 70656 IMPLICIT EXCLUSIONS
Info: NONBONDED TABLE R-SQUARED SPACING: 0.0625
Info: NONBONDED TABLE SIZE: 769 POINTS
Info: REMOVING COM VELOCITY -0.0114865 -0.0397512 0.0143674
TCL: Running for 5000 steps
ETITLE: TS BOND ANGLE DIHED IMPRP ELECT VDW BOUNDARY MISC KINETIC TOTAL TEMP POTENTIAL TOTAL3 TEMPAVG PRESSURE GPRESSURE VOLUME PRESSAVG GPRESSAVG
ENERGY: 0 394.6473 1205.8330 2919.4359 0.0000 -212633.6137 29526.3940 0.0000 0.0000 10042.6319 -168544.6717 97.6415 -178587.3036 -168535.0290 97.6415 -2413.2247 -2510.9949 534946.2959 -2413.2247 -2510.9949
ENERGY: 1000 1273.7606 1958.4768 3114.7327 0.0000 -193349.4807 26349.5045 755.4042 0.0000 23941.1477 -135956.4542 232.7727 -159897.6018 -135935.7089 218.5249 -14.2559 2.4232 523247.0941 3.2281 2.8885
ENERGY: 2000 1443.7451 2168.1464 3132.2233 0.0000 -184280.5033 23382.8273 831.4682 0.0000 27675.0396 -125647.0534 269.0762 -153322.0930 -125615.7616 263.1592 -38.4485 0.3888 515535.9722 -24.2963 -23.7388
ENERGY: 3000 1547.3654 2228.9547 3141.4524 0.0000 -179233.4257 21526.4911 824.2021 0.0000 29588.8170 -120376.1431 287.6833 -149964.9601 -120334.9718 283.9450 -31.9090 -9.7237 509953.6030 -19.7328 -19.7356
ENERGY: 4000 1576.6186 2270.0175 3142.1286 0.0000 -176858.4332 20737.7099 782.7520 0.0000 30424.8399 -117924.3669 295.8117 -148349.2067 -117876.7153 293.7357 -77.1190 -17.1303 507791.5686 -2.0522 -1.3993
ENERGY: 5000 1569.7230 2235.6217 3139.9205 0.0000 -176024.0570 20385.7833 828.2434 0.0000 30515.1648 -117349.6002 296.6899 -147864.7651 -117291.3120 297.3293 -63.5371 -13.2182 504427.5857 -5.3310 -5.3830
TCL: Setting parameter constraintScaling to 5.0
TCL: Running for 5000 steps
ETITLE: TS BOND ANGLE DIHED IMPRP ELECT VDW BOUNDARY MISC KINETIC TOTAL TEMP POTENTIAL TOTAL3 TEMPAVG PRESSURE GPRESSURE VOLUME PRESSAVG GPRESSAVG
ENERGY: 5000 1569.7230 2235.6217 3139.9205 0.0000 -176024.0570 20385.7833 414.1217 0.0000 30513.0933 -117765.7935 296.6698 -148278.8868 -117723.0049 296.6698 -92.1270 -35.6502 504427.5857 -92.1270 -35.6502
ENERGY: 6000 1640.7846 2219.2326 3153.3967 0.0000 -175695.4197 20421.1615 642.1865 0.0000 30366.9954 -117251.6623 295.2493 -147618.6578 -117205.7165 297.5577 30.8623 17.4939 503841.0561 0.5435 0.4990
ENERGY: 7000 1599.4148 2274.2657 3150.2788 0.0000 -176175.1409 20521.9820 620.1219 0.0000 30804.2073 -117204.8703 299.5002 -148009.0776 -117162.9216 297.8415 -152.6708 -5.7378 502123.4967 -19.0200 -19.0957
ENERGY: 8000 1609.7711 2229.4488 3176.5587 0.0000 -175465.8487 20077.1960 685.4703 0.0000 30951.8502 -116735.5537 300.9357 -147687.4039 -116692.3058 299.7456 -42.2001 -81.0284 503881.5430 0.1158 -0.2149
ENERGY: 9000 1568.2361 2275.8560 3162.5580 0.0000 -175068.9226 19866.3854 664.7499 0.0000 30784.7334 -116746.4038 299.3109 -147531.1372 -116702.6458 299.7356 13.3040 -2.5565 503109.5377 -3.7136 -3.5669
ENERGY: 10000 1554.9481 2319.4591 3187.3649 0.0000 -175936.2830 20459.3800 657.0120 0.0000 30741.9528 -117016.1660 298.8949 -147758.1188 -116970.6193 299.3153 -66.5888 22.7718 501524.9503 -12.9532 -13.1390
TCL: Setting parameter constraintScaling to 2.5
TCL: Running for 5000 steps
ETITLE: TS BOND ANGLE DIHED IMPRP ELECT VDW BOUNDARY MISC KINETIC TOTAL TEMP POTENTIAL TOTAL3 TEMPAVG PRESSURE GPRESSURE VOLUME PRESSAVG GPRESSAVG
ENERGY: 10000 1554.9481 2319.4591 3187.3649 0.0000 -175936.2830 20459.3800 328.5060 0.0000 30739.9043 -117346.7204 298.8750 -148086.6248 -117302.6094 298.8750 -73.8722 31.6608 501524.9503 -73.8722 31.6608
ENERGY: 11000 1599.9976 2379.6245 3194.4987 0.0000 -175879.3500 20145.0103 506.5522 0.0000 30973.3094 -117080.3574 301.1443 -148053.6668 -117032.4149 299.9401 -43.8709 -14.8872 499811.9608 -6.9920 -7.4764
ENERGY: 12000 1571.7681 2363.8288 3193.4610 0.0000 -176070.6506 20291.9589 489.0766 0.0000 30964.5764 -117195.9807 301.0594 -148160.5571 -117147.0280 299.4827 0.5812 7.5740 500237.0175 -0.2997 0.2479
ENERGY: 13000 1612.1965 2430.4824 3177.6024 0.0000 -175932.5093 20058.2671 525.4858 0.0000 30727.0427 -117401.4323 298.7500 -148128.4750 -117358.9250 299.7049 -84.2009 -38.1888 500269.9418 -6.5975 -6.2629
ENERGY: 14000 1615.4018 2363.8913 3174.6957 0.0000 -175740.6904 20066.6892 569.7010 0.0000 30880.4604 -117069.8509 300.2416 -147950.3114 -117023.3207 298.8359 -147.8293 -46.8157 499555.2335 -5.9662 -5.8732
ENERGY: 15000 1585.9164 2430.2461 3182.8921 0.0000 -175931.3474 20054.7755 526.3452 0.0000 30601.4640 -117549.7082 297.5290 -148151.1722 -117494.4686 299.5649 -90.4219 -27.4749 499155.7988 0.8232 0.5906
TCL: Setting parameter constraintScaling to 1.25
TCL: Running for 5000 steps
ETITLE: TS BOND ANGLE DIHED IMPRP ELECT VDW BOUNDARY MISC KINETIC TOTAL TEMP POTENTIAL TOTAL3 TEMPAVG PRESSURE GPRESSURE VOLUME PRESSAVG GPRESSAVG
ENERGY: 15000 1585.9164 2430.2461 3182.8921 0.0000 -175931.3474 20054.7755 263.1726 0.0000 30599.4211 -117814.9237 297.5091 -148414.3448 -117771.3015 297.5091 -164.4324 -105.0979 499155.7988 -164.4324 -105.0979
ENERGY: 16000 1587.6285 2374.0712 3218.3229 0.0000 -175495.3168 20047.0456 392.7161 0.0000 30697.4685 -117178.0641 298.4624 -147875.5325 -117131.1242 299.3122 86.0807 5.7704 500201.4281 6.4828 6.3985
ENERGY: 17000 1619.2586 2341.9262 3208.0930 0.0000 -175688.4989 20161.6411 422.7237 0.0000 30707.7465 -117227.1099 298.5624 -147934.8563 -117188.6039 300.2142 100.1480 125.1235 501275.1182 11.7052 12.1957
ENERGY: 18000 1592.6252 2297.4827 3175.7173 0.0000 -176141.6017 20145.5210 398.5478 0.0000 30978.9186 -117552.7889 301.1989 -148531.7076 -117508.0533 299.6108 -22.7201 20.7479 497827.2719 -9.1600 -8.8070
ENERGY: 19000 1646.5329 2333.9276 3212.1677 0.0000 -175905.2804 20104.3936 399.4355 0.0000 30709.8227 -117499.0003 298.5825 -148208.8230 -117447.0118 299.5966 -71.0946 -24.7336 497310.9440 -4.9620 -5.3149
ENERGY: 20000 1572.0531 2347.2194 3174.6250 0.0000 -175301.9614 19957.7851 399.4291 0.0000 30765.1091 -117085.7406 299.1201 -147850.8496 -117046.9588 299.7806 1.6335 26.6580 497469.5236 2.1771 2.1566
TCL: Setting parameter constraintScaling to 0.625
TCL: Running for 5000 steps
ETITLE: TS BOND ANGLE DIHED IMPRP ELECT VDW BOUNDARY MISC KINETIC TOTAL TEMP POTENTIAL TOTAL3 TEMPAVG PRESSURE GPRESSURE VOLUME PRESSAVG GPRESSAVG
ENERGY: 20000 1572.0531 2347.2194 3174.6250 0.0000 -175301.9614 19957.7851 199.7146 0.0000 30763.0683 -117287.4958 299.1002 -148050.5642 -117244.8704 299.1002 -13.6128 10.7140 497469.5236 -13.6128 10.7140
ENERGY: 21000 1649.1346 2374.1595 3205.6507 0.0000 -175814.0308 20198.7498 328.0059 0.0000 31083.8858 -116974.4445 302.2194 -148058.3303 -116928.9667 300.6047 -56.0337 -110.7735 498254.1566 3.6164 3.5490
ENERGY: 22000 1607.8161 2477.0904 3202.3264 0.0000 -175389.4848 19881.0512 330.0344 0.0000 30711.0012 -117180.1652 298.5940 -147891.1664 -117147.5215 299.6746 42.6354 -6.8576 499381.8048 4.4167 4.1095
ENERGY: 23000 1582.0719 2344.7436 3188.4501 0.0000 -175665.1526 20068.7381 322.0561 0.0000 30765.7459 -117393.3469 299.1263 -148159.0928 -117341.1812 299.3741 -26.6396 26.8705 499315.2636 7.1349 7.1592
ENERGY: 24000 1621.9583 2358.1246 3207.6474 0.0000 -175691.1439 19943.9387 331.0595 0.0000 30935.2670 -117293.1485 300.7745 -148228.4155 -117254.5315 300.2026 -22.4945 54.0058 497767.8341 -2.7541 -3.0392
ENERGY: 25000 1627.1773 2376.0505 3225.9756 0.0000 -175642.0253 19922.8640 324.3115 0.0000 30759.6971 -117405.9492 299.0675 -148165.6464 -117374.5445 299.8878 -14.1613 30.9305 497078.2204 -0.8864 -0.4657
TCL: Setting parameter constraintScaling to 0.3125
TCL: Running for 5000 steps
ETITLE: TS BOND ANGLE DIHED IMPRP ELECT VDW BOUNDARY MISC KINETIC TOTAL TEMP POTENTIAL TOTAL3 TEMPAVG PRESSURE GPRESSURE VOLUME PRESSAVG GPRESSAVG
ENERGY: 25000 1627.1773 2376.0505 3225.9756 0.0000 -175642.0253 19922.8640 162.1558 0.0000 30757.6365 -117570.1657 299.0474 -148327.8021 -117527.3568 299.0474 -25.6875 22.2640 497078.2204 -25.6875 22.2640
ENERGY: 26000 1663.7075 2370.9730 3221.8692 0.0000 -176010.2145 20110.2615 236.8148 0.0000 30675.0659 -117731.5226 298.2446 -148406.5885 -117690.5188 299.2502 -73.8852 -6.7312 497062.3303 -6.0000 -5.5438
ENERGY: 27000 1649.1568 2398.3362 3199.4974 0.0000 -175663.4826 19991.8442 251.5840 0.0000 30999.7621 -117173.3017 301.4015 -148173.0639 -117134.6812 301.1107 -37.7607 -70.9287 498432.6434 7.0632 7.2583
ENERGY: 28000 1654.7657 2412.6641 3179.2929 0.0000 -175663.6699 20044.9923 260.8385 0.0000 30773.9247 -117337.1916 299.2058 -148111.1163 -117284.5414 300.6674 86.4222 79.7375 496654.1157 -12.2150 -12.7805
ENERGY: 29000 1603.2501 2416.5890 3211.0694 0.0000 -175675.0429 20011.3990 245.8604 0.0000 30740.7348 -117446.1403 298.8831 -148186.8751 -117400.1089 300.2998 -78.3131 -28.0840 497808.2845 4.2910 4.5641
ENERGY: 30000 1597.5112 2407.2980 3211.8624 0.0000 -176069.6387 20065.0010 243.8141 0.0000 31012.1944 -117531.9576 301.5224 -148544.1520 -117493.2800 300.0628 -22.8742 -67.7096 497665.9314 -4.9565 -5.2446
TCL: Setting parameter constraintScaling to 0.15625
TCL: Running for 5000 steps
ETITLE: TS BOND ANGLE DIHED IMPRP ELECT VDW BOUNDARY MISC KINETIC TOTAL TEMP POTENTIAL TOTAL3 TEMPAVG PRESSURE GPRESSURE VOLUME PRESSAVG GPRESSAVG
ENERGY: 30000 1597.5112 2407.2980 3211.8624 0.0000 -176069.6387 20065.0010 121.9070 0.0000 31010.1517 -117655.9073 301.5025 -148666.0590 -117611.8421 301.5025 -23.8347 -71.5443 497665.9314 -23.8347 -71.5443
ENERGY: 31000 1634.8819 2383.8298 3217.9762 0.0000 -176128.3135 20162.3360 190.3276 0.0000 30643.9032 -117895.0588 297.9416 -148538.9620 -117852.5992 299.0566 24.2428 26.5742 497367.7882 2.6983 2.7853
ENERGY: 32000 1587.1654 2378.0706 3213.2921 0.0000 -175956.3704 19941.9701 184.8303 0.0000 30775.5462 -117875.4957 299.2215 -148651.0420 -117831.3925 299.3631 15.1817 70.3319 496566.9985 4.9876 5.0783
ENERGY: 33000 1611.2936 2392.5289 3187.0128 0.0000 -176226.0092 20239.8184 188.6507 0.0000 30771.4870 -117835.2177 299.1821 -148606.7047 -117790.5788 298.9146 -13.0106 -71.5507 496821.8884 -1.4744 -1.8274
ENERGY: 34000 1622.8318 2408.5961 3235.8804 0.0000 -175749.5242 20006.3261 191.8691 0.0000 30744.3818 -117539.6389 298.9185 -148284.0208 -117495.0560 299.1426 64.8013 17.6090 496210.4179 -10.3963 -10.4502
ENERGY: 35000 1586.9327 2467.0208 3202.6488 0.0000 -175595.1100 19845.7747 194.0256 0.0000 31008.1228 -117290.5846 301.4828 -148298.7074 -117234.1587 299.2355 -24.0555 -29.9141 496159.8627 9.1863 9.1200
TCL: Setting parameter constraintScaling to 0.078125
TCL: Running for 5000 steps
ETITLE: TS BOND ANGLE DIHED IMPRP ELECT VDW BOUNDARY MISC KINETIC TOTAL TEMP POTENTIAL TOTAL3 TEMPAVG PRESSURE GPRESSURE VOLUME PRESSAVG GPRESSAVG
ENERGY: 35000 1586.9327 2467.0208 3202.6488 0.0000 -175595.1100 19845.7747 97.0128 0.0000 31006.0519 -117389.6684 301.4627 -148395.7202 -117347.1560 301.4627 -31.4247 -33.1289 496159.8627 -31.4247 -33.1289
ENERGY: 36000 1625.6626 2340.8558 3252.4072 0.0000 -175853.0077 20046.6641 139.9466 0.0000 30868.3773 -117579.0941 300.1241 -148447.4714 -117539.3556 300.0122 -80.4106 -21.7967 495671.5884 -1.4094 -1.4193
ENERGY: 37000 1640.1704 2410.3223 3174.8458 0.0000 -175935.7394 20120.5863 135.4755 0.0000 30560.5365 -117893.8026 297.1311 -148454.3391 -117851.4123 299.1426 -56.3544 -73.5291 495023.3418 -9.9082 -10.1218
ENERGY: 38000 1608.9098 2351.6851 3212.5438 0.0000 -175877.4368 20118.3723 151.8585 0.0000 30568.6730 -117865.3944 297.2102 -148434.0674 -117818.3664 299.0687 66.6093 7.6406 495955.9125 -3.6005 -3.7300
ENERGY: 39000 1602.5077 2496.8504 3232.0836 0.0000 -175612.2786 19956.3953 159.3933 0.0000 30556.8240 -117608.2243 297.0950 -148165.0482 -117563.7771 299.9134 46.3488 76.4701 496563.9523 5.4714 5.3510
ENERGY: 40000 1586.7560 2432.1776 3189.4606 0.0000 -176023.6583 20167.0203 160.4700 0.0000 30940.0173 -117547.7565 300.8207 -148487.7738 -117514.5837 299.4773 73.8511 74.5460 496455.5697 -4.6297 -4.5639
TCL: Setting parameter constraintScaling to 0.0390625
TCL: Running for 5000 steps
ETITLE: TS BOND ANGLE DIHED IMPRP ELECT VDW BOUNDARY MISC KINETIC TOTAL TEMP POTENTIAL TOTAL3 TEMPAVG PRESSURE GPRESSURE VOLUME PRESSAVG GPRESSAVG
ENERGY: 40000 1586.7560 2432.1776 3189.4606 0.0000 -176023.6583 20167.0203 80.2350 0.0000 30937.9797 -117630.0291 300.8008 -148568.0088 -117588.2269 300.8008 69.6595 77.3152 496455.5697 69.6595 77.3152
ENERGY: 41000 1664.2625 2489.0533 3180.3345 0.0000 -175777.0851 19883.6614 101.4874 0.0000 30789.5302 -117668.7559 299.3575 -148458.2861 -117633.4558 299.0506 -126.7483 -124.5734 497130.7123 -1.1620 -1.2254
ENERGY: 42000 1636.3722 2443.3488 3202.5244 0.0000 -175358.0829 19906.5590 112.7404 0.0000 30907.3451 -117149.1929 300.5030 -148056.5380 -117112.4048 300.0025 -21.3252 57.5540 498372.1720 -7.6375 -7.2299
ENERGY: 43000 1657.5633 2401.7707 3202.5823 0.0000 -175704.1895 19912.5175 122.8340 0.0000 30704.6336 -117702.2881 298.5321 -148406.9217 -117654.1716 299.5205 -27.3278 18.9957 495873.9610 -12.8256 -13.0760
ENERGY: 44000 1686.4953 2420.2905 3230.7783 0.0000 -176092.1426 20075.6398 128.5099 0.0000 31037.6350 -117512.7938 301.7698 -148550.4288 -117470.0798 300.2135 -73.1874 -38.8646 498502.7922 1.4090 1.5037
ENERGY: 45000 1646.5737 2350.5052 3210.9998 0.0000 -176136.4269 20199.0761 139.7133 0.0000 30544.0222 -118045.5367 296.9705 -148589.5589 -117996.2370 299.1061 90.1560 17.8897 499216.7183 16.5913 16.3330
TCL: Setting parameter constraintScaling to 0.01953125
TCL: Running for 5000 steps
ETITLE: TS BOND ANGLE DIHED IMPRP ELECT VDW BOUNDARY MISC KINETIC TOTAL TEMP POTENTIAL TOTAL3 TEMPAVG PRESSURE GPRESSURE VOLUME PRESSAVG GPRESSAVG
ENERGY: 45000 1646.5737 2350.5052 3210.9998 0.0000 -176136.4269 20199.0761 69.8566 0.0000 30541.9834 -118117.4321 296.9507 -148659.4155 -118075.7647 296.9507 76.8001 5.1144 499216.7183 76.8001 5.1144
ENERGY: 46000 1640.7047 2418.3867 3221.9967 0.0000 -175730.6589 19836.8460 80.6297 0.0000 30807.9538 -117724.1413 299.5366 -148532.0951 -117677.2676 298.2025 -168.6161 -100.6506 497211.8554 5.8449 6.0027
ENERGY: 47000 1631.7461 2432.8380 3193.1356 0.0000 -176173.0410 20321.1639 85.6766 0.0000 30955.5405 -117552.9403 300.9716 -148508.4808 -117499.0791 300.2694 -61.7252 -2.2783 498725.3345 7.5878 8.0501
ENERGY: 48000 1636.3829 2409.0079 3223.2192 0.0000 -176206.4688 19960.0467 99.6269 0.0000 30730.5465 -118147.6387 298.7840 -148878.1852 -118110.9557 298.4566 -10.0104 26.7483 496029.3324 -5.6235 -6.1719
ENERGY: 49000 1598.8307 2471.0168 3201.0090 0.0000 -176448.7889 20047.9137 92.3121 0.0000 30709.7260 -118327.9804 298.5816 -149037.7065 -118277.0907 297.4810 -28.4353 -56.3405 495027.1773 -5.3605 -5.3291
ENERGY: 50000 1634.4259 2359.4157 3193.8067 0.0000 -176083.8108 20052.9223 91.5774 0.0000 30595.5646 -118156.0983 297.4716 -148751.6628 -118109.8924 298.1397 -72.1502 -87.3682 496143.3193 -0.9461 -1.0348
TCL: Setting parameter constraintScaling to 0
TCL: Running for 5000 steps
ETITLE: TS BOND ANGLE DIHED IMPRP ELECT VDW BOUNDARY MISC KINETIC TOTAL TEMP POTENTIAL TOTAL3 TEMPAVG PRESSURE GPRESSURE VOLUME PRESSAVG GPRESSAVG
ENERGY: 50000 1634.4259 2359.4157 3193.8067 0.0000 -176083.8108 20052.9223 0.0000 0.0000 30593.5370 -118249.7032 297.4519 -148843.2403 -118209.0090 297.4519 -57.7158 -76.3938 496143.3193 -57.7158 -76.3938
ENERGY: 51000 1607.2926 2404.7348 3192.4724 0.0000 -175823.7800 19926.5749 0.0000 0.0000 30860.6296 -117832.0758 300.0488 -148692.7054 -117793.5970 299.0352 -14.8314 67.1758 495609.2182 -13.9451 -13.8354
ENERGY: 52000 1603.7688 2368.4630 3195.7946 0.0000 -176432.8961 20082.3126 0.0000 0.0000 30928.3615 -118254.1956 300.7073 -149182.5571 -118212.2813 298.4957 -55.9889 -19.8871 495907.8933 -10.4227 -10.5335
ENERGY: 53000 1662.1687 2392.4110 3199.3090 0.0000 -175675.3536 20074.4236 0.0000 0.0000 30832.8215 -117514.2197 299.7784 -148347.0412 -117464.8626 299.9147 -17.4123 79.5141 497082.4422 -7.4361 -7.0206
ENERGY: 54000 1653.0841 2426.2141 3206.8129 0.0000 -175805.0539 20078.9830 0.0000 0.0000 30631.9509 -117808.0089 297.8254 -148439.9598 -117767.6660 299.9803 -81.0994 41.8214 496940.7629 2.7492 3.3118
ENERGY: 55000 1684.5025 2421.9750 3192.3166 0.0000 -175843.8975 20080.5916 0.0000 0.0000 30670.7254 -117793.7865 298.2024 -148464.5119 -117743.9333 298.6748 15.7645 24.2665 497876.7626 4.6734 4.3120
