Info: SIMULATION PARAMETERS:
Info: TIMESTEP               2
Info: NUMBER OF STEPS        0
Info: STEPS PER CYCLE        10
Info: PERIODIC CELL BASIS 1  72.449 0 0
Info: PERIODIC CELL BASIS 2  0 93.247 0
Info: PERIODIC CELL BASIS 3  0 0 79.185
Info: PERIODIC CELL CENTER   -0.248 -0.156 -0.047
Info: WRAPPING WATERS AROUND PERIODIC BOUNDARIES ON OUTPUT.
Info: WRAPPING ALL CLUSTERS AROUND PERIODIC BOUNDARIES ON OUTPUT.
Info: FIRST LDB TIMESTEP     50
Info: LAST LDB TIMESTEP     -1
Info: HOM BACKGROUND SCALING 1
Info: PME BACKGROUND SCALING 1
Info: MIN ATOMS PER PATCH    40
Info: INITIAL TEMPERATURE    0
Info: CENTER OF MASS MOVING INITIALLY? NO
Info: DIELECTRIC             1
Info: EXCLUDE                SCALED ONE-FOUR
Info: 1-4 ELECTROSTATICS SCALED BY 0.833333
Info: MODIFIED 1-4 VDW PARAMETERS WILL BE USED
Info: NO DCD TRAJECTORY OUTPUT
Info: NO EXTENDED SYSTEM TRAJECTORY OUTPUT
Info: NO VELOCITY DCD OUTPUT
Info: NO FORCE DCD OUTPUT
Info: OUTPUT FILENAME        ../replicas/rep62/equilibration/eq0
Info: NO RESTART FILE
Info: SWITCHING ACTIVE
Info: SWITCHING ON           10
Info: SWITCHING OFF          12
Info: PAIRLIST DISTANCE      13.5
Info: PAIRLIST SHRINK RATE   0.01
Info: PAIRLIST GROW RATE     0.01
Info: PAIRLIST TRIGGER       0.3
Info: PAIRLISTS PER CYCLE    2
Info: PAIRLISTS ENABLED
Info: MARGIN                 0
Info: HYDROGEN GROUP CUTOFF  2.5
Info: PATCH DIMENSION        16
Info: ENERGY OUTPUT STEPS    500
Info: CROSSTERM ENERGY INCLUDED IN DIHEDRAL
Info: TIMING OUTPUT STEPS    5000
Info: PRESSURE OUTPUT STEPS  500
Info: HARMONIC CONSTRAINTS ACTIVE
Info: HARMONIC CONS EXP      2
Info: HARMONIC CONS SCALING  10
Info: CONJUGATE GRADIENT MINIMIZATION ACTIVE
Info: LINE MINIMIZATION GOAL = 0.001
Info: BABY STEP SIZE = 0.01
Info: TINY STEP SIZE = 1e-06
Info: PARTICLE MESH EWALD (PME) ACTIVE
Info: PME TOLERANCE               1e-06
Info: PME EWALD COEFFICIENT       0.257952
Info: PME INTERPOLATION ORDER     4
Info: PME GRID DIMENSIONS         80 96 80
Info: PME MAXIMUM GRID SPACING    1
Info: FULL ELECTROSTATIC EVALUATION FREQUENCY      2
Info: USING VERLET I (r-RESPA) MTS SCHEME.
Info: C1 SPLITTING OF LONG RANGE ELECTROSTATICS
Info: PLACING ATOMS IN PATCHES BY HYDROGEN GROUPS
Info: RIGID BONDS TO HYDROGEN : ALL
Info:         ERROR TOLERANCE : 1e-05
Info:          MAX ITERATIONS : 100
Info: RIGID WATER USING SETTLE ALGORITHM
Info: RANDOM NUMBER SEED     1503691534
Info: USE HYDROGEN BONDS?    NO
Info: Using AMBER format force field!
Info: AMBER PARM FILE        ../build/complex.top
Info: COORDINATE PDB         ../build/complex.pdb
Info: Exclusions in PARM file will be ignored!
Info: SCNB (VDW SCALING)     2
Info: USING ARITHMETIC MEAN TO COMBINE L-J SIGMA PARAMETERS
Info: SUMMARY OF PARAMETERS:
Info: 71 BONDS
Info: 145 ANGLES
Info:   145 HARMONIC
Info:   0 COSINE-BASED
Info: 76 DIHEDRAL
Info: 0 IMPROPER
Info: 0 CROSSTERM
Info: 0 VDW
Info: 190 VDW_PAIRS
Info: 0 NBTHOLE_PAIRS
Info: STRUCTURE SUMMARY:
Info: 49394 ATOMS
Info: 49448 BONDS
Info: 8698 ANGLES
Info: 18780 DIHEDRALS
Info: 0 IMPROPERS
Info: 0 CROSSTERMS
Info: 0 EXCLUSIONS
Info: 2336 CONSTRAINTS
Info: 47058 RIGID BONDS
Info: 101124 DEGREES OF FREEDOM
Info: 17225 HYDROGEN GROUPS
Info: 4 ATOMS IN LARGEST HYDROGEN GROUP
Info: 17225 MIGRATION GROUPS
Info: 4 ATOMS IN LARGEST MIGRATION GROUP
Info: TOTAL MASS = 301478 amu
Info: TOTAL CHARGE = 1.00115e-05 e
Info: MASS DENSITY = 0.935846 g/cm^3
Info: ATOM DENSITY = 0.0923345 atoms/A^3
Info: ADDED 70656 IMPLICIT EXCLUSIONS
Info: NONBONDED TABLE R-SQUARED SPACING: 0.0625
Info: NONBONDED TABLE SIZE: 769 POINTS
Info: REMOVING COM VELOCITY 0 0 0
TCL: Minimizing for 100 steps
ETITLE: TS BOND ANGLE DIHED IMPRP ELECT VDW BOUNDARY MISC KINETIC TOTAL TEMP POTENTIAL TOTAL3 TEMPAVG PRESSURE GPRESSURE VOLUME PRESSAVG GPRESSAVG
ENERGY: 0 155.4176 1012.2698 2855.7272 0.0000 -154496.7911 207729.2052 0.0468 0.0000 0.0000 57255.8755 0.0000 57255.8755 57255.8755 0.0000 116350.2532 86546.1670 534946.2959 116350.2532 86546.1670
ENERGY: 20 304.7555 935.7912 2893.4663 0.0000 -158672.9408 17936.6592 143.9454 0.0000 0.0000 -136458.3232 0.0000 -136458.3232 -136458.3232 0.0000 16523.9385 -239.4560 534946.2959 16523.9385 -239.4560
ENERGY: 40 198.7463 799.5730 2896.9273 0.0000 -162811.4533 16417.9536 221.3031 0.0000 0.0000 -142276.9500 0.0000 -142276.9500 -142276.9500 0.0000 15011.2702 -2135.4699 534946.2959 15011.2702 -2135.4699
ENERGY: 60 130.5281 715.3439 2898.2166 0.0000 -167496.1593 15446.7535 315.2797 0.0000 0.0000 -147990.0375 0.0000 -147990.0375 -147990.0375 0.0000 13793.8832 -3799.3993 534946.2959 13793.8832 -3799.3993
ENERGY: 80 431.2715 765.6305 2904.3787 0.0000 -169937.5321 15121.1521 372.0123 0.0000 0.0000 -150343.0870 0.0000 -150343.0870 -150343.0870 0.0000 13270.3302 -4577.2455 534946.2959 13270.3302 -4577.2455
ENERGY: 100 129.7128 708.0644 2904.2781 0.0000 -171050.0665 15018.6536 384.2001 0.0000 0.0000 -151905.1575 0.0000 -151905.1575 -151905.1575 0.0000 13092.9128 -4843.6312 534946.2959 13092.9128 -4843.6312
TCL: Setting parameter constraintScaling to 5.0
TCL: Minimizing for 100 steps
ETITLE: TS BOND ANGLE DIHED IMPRP ELECT VDW BOUNDARY MISC KINETIC TOTAL TEMP POTENTIAL TOTAL3 TEMPAVG PRESSURE GPRESSURE VOLUME PRESSAVG GPRESSAVG
ENERGY: 100 129.7128 708.0644 2904.2781 0.0000 -171050.0665 15018.6536 192.1001 0.0000 0.0000 -152097.2575 0.0000 -152097.2575 -152097.2575 0.0000 13703.5080 -22944.4546 534946.2959 13703.5080 -22944.4546
ENERGY: 120 118.6819 680.2874 2909.9066 0.0000 -172396.3119 14830.1206 259.9549 0.0000 0.0000 -153597.3605 0.0000 -153597.3605 -153597.3605 0.0000 13320.9477 -4756.3067 534946.2959 13320.9477 -4756.3067
ENERGY: 140 109.1478 671.1467 2912.0863 0.0000 -174830.2554 14716.1439 337.7306 0.0000 0.0000 -156084.0001 0.0000 -156084.0001 -156084.0001 0.0000 12908.9601 -5423.1445 534946.2959 12908.9601 -5423.1445
ENERGY: 160 125.8507 667.1506 2914.1925 0.0000 -175967.0434 14735.1342 362.9187 0.0000 0.0000 -157161.7967 0.0000 -157161.7967 -157161.7967 0.0000 12806.8955 -5644.0348 534946.2959 12806.8955 -5644.0348
ENERGY: 180 303.4915 659.6825 2917.2967 0.0000 -177408.7458 14815.0174 395.3833 0.0000 0.0000 -158317.8744 0.0000 -158317.8744 -158317.8744 0.0000 12699.3137 -5901.1217 534946.2959 12699.3137 -5901.1217
ENERGY: 200 109.2091 628.4697 2923.3579 0.0000 -179543.7774 15071.1435 441.8795 0.0000 0.0000 -160369.7177 0.0000 -160369.7177 -160369.7177 0.0000 12659.9902 -6162.0278 534946.2959 12659.9902 -6162.0278
TCL: Setting parameter constraintScaling to 2.5
TCL: Minimizing for 100 steps
ETITLE: TS BOND ANGLE DIHED IMPRP ELECT VDW BOUNDARY MISC KINETIC TOTAL TEMP POTENTIAL TOTAL3 TEMPAVG PRESSURE GPRESSURE VOLUME PRESSAVG GPRESSAVG
ENERGY: 200 109.2091 628.4697 2923.3579 0.0000 -179543.7774 15071.1435 220.9398 0.0000 0.0000 -160590.6575 0.0000 -160590.6575 -160590.6575 0.0000 13208.4122 -25281.1642 534946.2959 13208.4122 -25281.1642
ENERGY: 220 275.0484 652.0443 2925.2524 0.0000 -180395.1192 15108.8201 287.9318 0.0000 0.0000 -161146.0223 0.0000 -161146.0223 -161146.0223 0.0000 13000.0617 -5921.2898 534946.2959 13000.0617 -5921.2898
ENERGY: 240 144.4936 629.0417 2922.0900 0.0000 -181649.8464 15308.6520 331.5289 0.0000 0.0000 -162314.0403 0.0000 -162314.0403 -162314.0403 0.0000 12968.6418 -6082.7227 534946.2959 12968.6418 -6082.7227
ENERGY: 260 238.5992 648.2946 2922.1915 0.0000 -183610.3832 15752.9435 410.1329 0.0000 0.0000 -163638.2214 0.0000 -163638.2214 -163638.2214 0.0000 12997.5397 -6272.6555 534946.2959 12997.5397 -6272.6555
ENERGY: 280 182.8801 654.5835 2917.9277 0.0000 -184832.6557 16104.4234 431.2254 0.0000 0.0000 -164541.6157 0.0000 -164541.6157 -164541.6157 0.0000 13136.4662 -6275.9796 534946.2959 13136.4662 -6275.9796
ENERGY: 300 181.1749 672.5450 2923.2697 0.0000 -185739.6000 16391.6817 428.1077 0.0000 0.0000 -165142.8210 0.0000 -165142.8210 -165142.8210 0.0000 13254.1449 -6246.6723 534946.2959 13254.1449 -6246.6723
TCL: Setting parameter constraintScaling to 1.25
TCL: Minimizing for 100 steps
ETITLE: TS BOND ANGLE DIHED IMPRP ELECT VDW BOUNDARY MISC KINETIC TOTAL TEMP POTENTIAL TOTAL3 TEMPAVG PRESSURE GPRESSURE VOLUME PRESSAVG GPRESSAVG
ENERGY: 300 181.1749 672.5450 2923.2697 0.0000 -185739.6000 16391.6817 214.0539 0.0000 0.0000 -165356.8749 0.0000 -165356.8749 -165356.8749 0.0000 13669.8576 -26251.0618 534946.2959 13669.8576 -26251.0618
ENERGY: 320 164.9568 664.4794 2915.3174 0.0000 -186222.6777 16487.9081 249.7378 0.0000 0.0000 -165740.2782 0.0000 -165740.2782 -165740.2782 0.0000 13644.6049 -5919.7562 534946.2959 13644.6049 -5919.7562
ENERGY: 340 203.6517 680.7582 2911.2741 0.0000 -187476.4097 16826.0903 333.7679 0.0000 0.0000 -166520.8675 0.0000 -166520.8675 -166520.8675 0.0000 13596.8783 -6097.2888 534946.2959 13596.8783 -6097.2888
ENERGY: 360 147.5277 663.3980 2904.6845 0.0000 -188282.3896 17089.8253 352.2048 0.0000 0.0000 -167124.7493 0.0000 -167124.7493 -167124.7493 0.0000 13741.2106 -6061.5912 534946.2959 13741.2106 -6061.5912
ENERGY: 380 153.2056 670.1261 2914.9466 0.0000 -189122.5089 17432.3554 326.7598 0.0000 0.0000 -167625.1155 0.0000 -167625.1155 -167625.1155 0.0000 13950.5789 -5924.9683 534946.2959 13950.5789 -5924.9683
ENERGY: 400 154.8606 667.1886 2926.5608 0.0000 -190704.7818 18084.8454 332.5445 0.0000 0.0000 -168538.7820 0.0000 -168538.7820 -168538.7820 0.0000 14339.3614 -5744.0357 534946.2959 14339.3614 -5744.0357
TCL: Setting parameter constraintScaling to 0.625
TCL: Minimizing for 100 steps
ETITLE: TS BOND ANGLE DIHED IMPRP ELECT VDW BOUNDARY MISC KINETIC TOTAL TEMP POTENTIAL TOTAL3 TEMPAVG PRESSURE GPRESSURE VOLUME PRESSAVG GPRESSAVG
ENERGY: 400 154.8606 667.1886 2926.5608 0.0000 -190704.7818 18084.8454 166.2722 0.0000 0.0000 -168705.0543 0.0000 -168705.0543 -168705.0543 0.0000 14622.4929 -26484.7323 534946.2959 14622.4929 -26484.7323
ENERGY: 420 153.7962 643.7726 2895.6750 0.0000 -191075.0163 18137.0819 201.0058 0.0000 0.0000 -169043.6847 0.0000 -169043.6847 -169043.6847 0.0000 14448.8057 -5650.6715 534946.2959 14448.8057 -5650.6715
ENERGY: 440 162.6537 671.0263 2894.7380 0.0000 -191652.0590 18287.7428 248.0340 0.0000 0.0000 -169387.8641 0.0000 -169387.8641 -169387.8641 0.0000 14412.3586 -5760.3670 534946.2959 14412.3586 -5760.3670
ENERGY: 460 155.5454 668.8329 2894.5911 0.0000 -192063.1006 18416.9556 269.1453 0.0000 0.0000 -169658.0303 0.0000 -169658.0303 -169658.0303 0.0000 14443.8755 -5776.3087 534946.2959 14443.8755 -5776.3087
ENERGY: 480 167.2244 673.8728 2892.5208 0.0000 -192428.1675 18565.1315 253.7839 0.0000 0.0000 -169875.6341 0.0000 -169875.6341 -169875.6341 0.0000 14571.0747 -5678.0245 534946.2959 14571.0747 -5678.0245
ENERGY: 500 151.5355 718.4727 2930.1827 0.0000 -193387.5287 19018.3717 248.6253 0.0000 0.0000 -170320.3409 0.0000 -170320.3409 -170320.3409 0.0000 14918.1221 -5476.0903 534946.2959 14918.1221 -5476.0903
TCL: Setting parameter constraintScaling to 0.3125
TCL: Minimizing for 100 steps
ETITLE: TS BOND ANGLE DIHED IMPRP ELECT VDW BOUNDARY MISC KINETIC TOTAL TEMP POTENTIAL TOTAL3 TEMPAVG PRESSURE GPRESSURE VOLUME PRESSAVG GPRESSAVG
ENERGY: 500 151.5355 718.4727 2930.1827 0.0000 -193387.5287 19018.3717 124.3126 0.0000 0.0000 -170444.6536 0.0000 -170444.6536 -170444.6536 0.0000 15098.2038 -26631.9512 534946.2959 15098.2038 -26631.9512
ENERGY: 520 154.8622 661.3405 2883.7631 0.0000 -193703.7410 19051.8499 145.5163 0.0000 0.0000 -170806.4090 0.0000 -170806.4090 -170806.4090 0.0000 14922.0491 -5465.4834 534946.2959 14922.0491 -5465.4834
ENERGY: 540 203.1896 701.1889 2892.4146 0.0000 -194317.7730 19251.9757 177.3122 0.0000 0.0000 -171091.6920 0.0000 -171091.6920 -171091.6920 0.0000 14891.5294 -5544.9657 534946.2959 14891.5294 -5544.9657
ENERGY: 560 164.3155 674.8132 2876.8501 0.0000 -194732.1450 19386.7923 181.3666 0.0000 0.0000 -171448.0073 0.0000 -171448.0073 -171448.0073 0.0000 15034.5602 -5487.4914 534946.2959 15034.5602 -5487.4914
ENERGY: 580 350.5648 835.3227 2924.3411 0.0000 -195802.1229 19909.4420 179.3070 0.0000 0.0000 -171603.1452 0.0000 -171603.1452 -171603.1452 0.0000 15448.8693 -5217.3042 534946.2959 15448.8693 -5217.3042
ENERGY: 600 153.2500 659.2170 2889.6659 0.0000 -196414.2270 20119.7952 194.7720 0.0000 0.0000 -172397.5269 0.0000 -172397.5269 -172397.5269 0.0000 15445.7516 -5259.1944 534946.2959 15445.7516 -5259.1944
TCL: Setting parameter constraintScaling to 0.15625
TCL: Minimizing for 100 steps
ETITLE: TS BOND ANGLE DIHED IMPRP ELECT VDW BOUNDARY MISC KINETIC TOTAL TEMP POTENTIAL TOTAL3 TEMPAVG PRESSURE GPRESSURE VOLUME PRESSAVG GPRESSAVG
ENERGY: 600 153.2500 659.2170 2889.6659 0.0000 -196414.2270 20119.7952 97.3860 0.0000 0.0000 -172494.9129 0.0000 -172494.9129 -172494.9129 0.0000 15562.1034 -26881.9858 534946.2959 15562.1034 -26881.9858
ENERGY: 620 180.8679 652.8016 2867.4661 0.0000 -196783.2583 20184.4736 112.1765 0.0000 0.0000 -172785.4726 0.0000 -172785.4726 -172785.4726 0.0000 15457.3528 -5280.8899 534946.2959 15457.3528 -5280.8899
ENERGY: 640 183.6628 679.6306 2862.4837 0.0000 -197186.6255 20328.9056 119.1957 0.0000 0.0000 -173012.7471 0.0000 -173012.7471 -173012.7471 0.0000 15561.4890 -5248.3036 534946.2959 15561.4890 -5248.3036
ENERGY: 660 247.2502 677.0817 2861.5727 0.0000 -197887.3952 20586.5676 132.0605 0.0000 0.0000 -173382.8624 0.0000 -173382.8624 -173382.8624 0.0000 15645.3041 -5223.8947 534946.2959 15645.3041 -5223.8947
ENERGY: 680 162.5433 655.0201 2855.1013 0.0000 -198396.6211 20789.6936 137.2717 0.0000 0.0000 -173796.9910 0.0000 -173796.9910 -173796.9910 0.0000 15752.4855 -5182.0587 534946.2959 15752.4855 -5182.0587
ENERGY: 700 169.6754 674.8703 2852.9612 0.0000 -198672.5962 20910.8933 136.4307 0.0000 0.0000 -173927.7653 0.0000 -173927.7653 -173927.7653 0.0000 15838.1688 -5138.8771 534946.2959 15838.1688 -5138.8771
TCL: Setting parameter constraintScaling to 0.078125
TCL: Minimizing for 100 steps
ETITLE: TS BOND ANGLE DIHED IMPRP ELECT VDW BOUNDARY MISC KINETIC TOTAL TEMP POTENTIAL TOTAL3 TEMPAVG PRESSURE GPRESSURE VOLUME PRESSAVG GPRESSAVG
ENERGY: 700 169.6754 674.8703 2852.9612 0.0000 -198672.5962 20910.8933 68.2154 0.0000 0.0000 -173995.9806 0.0000 -173995.9806 -173995.9806 0.0000 15907.7226 -27063.0944 534946.2959 15907.7226 -27063.0944
ENERGY: 720 161.5624 665.5805 2853.8169 0.0000 -198883.7545 20966.3750 71.7644 0.0000 0.0000 -174164.6554 0.0000 -174164.6554 -174164.6554 0.0000 15909.4760 -5088.4427 534946.2959 15909.4760 -5088.4427
ENERGY: 740 236.7071 676.8970 2843.9760 0.0000 -199672.2511 21260.2288 78.7747 0.0000 0.0000 -174575.6675 0.0000 -174575.6675 -174575.6675 0.0000 16026.4135 -5056.8138 534946.2959 16026.4135 -5056.8138
ENERGY: 760 158.7584 658.8727 2844.1123 0.0000 -199709.4514 21264.6840 78.7752 0.0000 0.0000 -174704.2489 0.0000 -174704.2489 -174704.2489 0.0000 16054.2377 -5038.8829 534946.2959 16054.2377 -5038.8829
ENERGY: 780 166.5061 711.3661 2845.5031 0.0000 -200694.1594 21653.3249 85.2935 0.0000 0.0000 -175232.1657 0.0000 -175232.1657 -175232.1657 0.0000 16256.0233 -4961.2022 534946.2959 16256.0233 -4961.2022
ENERGY: 800 170.6253 695.4187 2839.4344 0.0000 -201258.5926 21891.9769 90.3265 0.0000 0.0000 -175570.8110 0.0000 -175570.8110 -175570.8110 0.0000 16359.8040 -4904.8380 534946.2959 16359.8040 -4904.8380
TCL: Setting parameter constraintScaling to 0.0390625
TCL: Minimizing for 100 steps
ETITLE: TS BOND ANGLE DIHED IMPRP ELECT VDW BOUNDARY MISC KINETIC TOTAL TEMP POTENTIAL TOTAL3 TEMPAVG PRESSURE GPRESSURE VOLUME PRESSAVG GPRESSAVG
ENERGY: 800 170.6253 695.4187 2839.4344 0.0000 -201258.5926 21891.9769 45.1632 0.0000 0.0000 -175615.9742 0.0000 -175615.9742 -175615.9742 0.0000 16401.3884 -27197.5358 534946.2959 16401.3884 -27197.5358
ENERGY: 820 183.1881 655.0731 2833.5789 0.0000 -201412.0988 21935.0136 46.5722 0.0000 0.0000 -175758.6729 0.0000 -175758.6729 -175758.6729 0.0000 16409.5806 -4875.5385 534946.2959 16409.5806 -4875.5385
ENERGY: 840 172.5722 662.3923 2829.6949 0.0000 -201713.2694 22056.5747 48.4677 0.0000 0.0000 -175943.5677 0.0000 -175943.5677 -175943.5677 0.0000 16474.3583 -4852.6806 534946.2959 16474.3583 -4852.6806
ENERGY: 860 187.8080 667.3140 2828.4380 0.0000 -202096.5824 22198.6951 50.6969 0.0000 0.0000 -176163.6303 0.0000 -176163.6303 -176163.6303 0.0000 16541.9272 -4832.8833 534946.2959 16541.9272 -4832.8833
ENERGY: 880 169.4174 659.8149 2826.0830 0.0000 -202253.4993 22257.8605 50.9480 0.0000 0.0000 -176289.3754 0.0000 -176289.3754 -176289.3754 0.0000 16567.9460 -4819.0413 534946.2959 16567.9460 -4819.0413
ENERGY: 900 164.7202 681.3997 2834.0748 0.0000 -202708.9180 22454.9824 52.3884 0.0000 0.0000 -176521.3525 0.0000 -176521.3525 -176521.3525 0.0000 16668.5541 -4769.1142 534946.2959 16668.5541 -4769.1142
TCL: Setting parameter constraintScaling to 0.01953125
TCL: Minimizing for 100 steps
ETITLE: TS BOND ANGLE DIHED IMPRP ELECT VDW BOUNDARY MISC KINETIC TOTAL TEMP POTENTIAL TOTAL3 TEMPAVG PRESSURE GPRESSURE VOLUME PRESSAVG GPRESSAVG
ENERGY: 900 164.7202 681.3997 2834.0748 0.0000 -202708.9180 22454.9824 26.1942 0.0000 0.0000 -176547.5468 0.0000 -176547.5468 -176547.5468 0.0000 16691.4407 -27258.5799 534946.2959 16691.4407 -27258.5799
ENERGY: 920 166.0134 659.8639 2822.5655 0.0000 -202892.0592 22512.0082 26.8654 0.0000 0.0000 -176704.7429 0.0000 -176704.7429 -176704.7429 0.0000 16734.0036 -4738.8252 534946.2959 16734.0036 -4738.8252
ENERGY: 940 168.7426 669.3107 2824.0646 0.0000 -203078.8607 22597.6575 27.7104 0.0000 0.0000 -176791.3748 0.0000 -176791.3748 -176791.3748 0.0000 16760.3970 -4719.9220 534946.2959 16760.3970 -4719.9220
ENERGY: 960 168.3596 663.4282 2821.9492 0.0000 -203231.5113 22653.7801 28.2337 0.0000 0.0000 -176895.7605 0.0000 -176895.7605 -176895.7605 0.0000 16790.7141 -4714.1142 534946.2959 16790.7141 -4714.1142
ENERGY: 980 170.6972 663.6095 2819.7170 0.0000 -203354.8723 22698.7286 28.4369 0.0000 0.0000 -176973.6831 0.0000 -176973.6831 -176973.6831 0.0000 16799.8958 -4708.5980 534946.2959 16799.8958 -4708.5980
ENERGY: 1000 171.2913 679.8086 2826.8658 0.0000 -203569.1114 22798.0555 28.9234 0.0000 0.0000 -177064.1669 0.0000 -177064.1669 -177064.1669 0.0000 16862.7015 -4682.4371 534946.2959 16862.7015 -4682.4371
TCL: Setting parameter constraintScaling to 0
TCL: Minimizing for 5000 steps
ETITLE: TS BOND ANGLE DIHED IMPRP ELECT VDW BOUNDARY MISC KINETIC TOTAL TEMP POTENTIAL TOTAL3 TEMPAVG PRESSURE GPRESSURE VOLUME PRESSAVG GPRESSAVG
ENERGY: 1000 171.2913 679.8086 2826.8658 0.0000 -203569.1114 22798.0555 0.0000 0.0000 0.0000 -177093.0903 0.0000 -177093.0903 -177093.0903 0.0000 16886.9371 -27261.0155 534946.2959 16886.9371 -27261.0155
ENERGY: 2000 171.0903 659.5136 2800.6631 0.0000 -214268.9088 27578.8731 0.0000 0.0000 0.0000 -183058.7687 0.0000 -183058.7687 -183058.7687 0.0000 19418.9885 -3338.0788 534946.2959 19418.9885 -3338.0788
ENERGY: 3000 182.4869 673.6079 2798.3051 0.0000 -217349.5759 28815.5870 0.0000 0.0000 0.0000 -184879.5890 0.0000 -184879.5890 -184879.5890 0.0000 20081.6880 -2972.2374 534946.2959 20081.6880 -2972.2374
ENERGY: 4000 238.4804 675.4411 2790.9088 0.0000 -218729.0552 29424.2961 0.0000 0.0000 0.0000 -185599.9288 0.0000 -185599.9288 -185599.9288 0.0000 20384.4824 -2803.3504 534946.2959 20384.4824 -2803.3504
ENERGY: 5000 167.4201 662.9712 2785.1644 0.0000 -219412.2901 29684.7864 0.0000 0.0000 0.0000 -186111.9479 0.0000 -186111.9479 -186111.9479 0.0000 20532.9965 -2741.6534 534946.2959 20532.9965 -2741.6534
ENERGY: 6000 165.8840 661.5864 2786.4804 0.0000 -219856.2932 29856.9333 0.0000 0.0000 0.0000 -186385.4091 0.0000 -186385.4091 -186385.4091 0.0000 20622.0370 -2693.2345 534946.2959 20622.0370 -2693.2345
