Info: SIMULATION PARAMETERS:
Info: TIMESTEP               1
Info: NUMBER OF STEPS        0
Info: STEPS PER CYCLE        10
Info: PERIODIC CELL BASIS 1  72.449 0 0
Info: PERIODIC CELL BASIS 2  0 93.247 0
Info: PERIODIC CELL BASIS 3  0 0 79.185
Info: PERIODIC CELL CENTER   -0.248 -0.156 -0.047
Info: WRAPPING WATERS AROUND PERIODIC BOUNDARIES ON OUTPUT.
Info: WRAPPING ALL CLUSTERS AROUND PERIODIC BOUNDARIES ON OUTPUT.
Info: FIRST LDB TIMESTEP     50
Info: LAST LDB TIMESTEP     -1
Info: HOM BACKGROUND SCALING 1
Info: PME BACKGROUND SCALING 1
Info: MIN ATOMS PER PATCH    40
Info: VELOCITY FILE          ../replicas/rep72/equilibration/eq1.vel
Info: CENTER OF MASS MOVING INITIALLY? NO
Info: DIELECTRIC             1
Info: EXCLUDE                SCALED ONE-FOUR
Info: 1-4 ELECTROSTATICS SCALED BY 0.833333
Info: MODIFIED 1-4 VDW PARAMETERS WILL BE USED
Info: DCD FILENAME           ../replicas/rep72/equilibration/eq2.dcd
Info: DCD FREQUENCY          5000
Info: DCD FIRST STEP         5000
Info: DCD FILE WILL CONTAIN UNIT CELL DATA
Info: XST FILENAME           ../replicas/rep72/equilibration/eq2.xst
Info: XST FREQUENCY          5000
Info: NO VELOCITY DCD OUTPUT
Info: NO FORCE DCD OUTPUT
Info: OUTPUT FILENAME        ../replicas/rep72/equilibration/eq2
Info: RESTART FILENAME       ../replicas/rep72/equilibration/eq2.restart
Info: RESTART FREQUENCY      5000
Info: BINARY RESTART FILES WILL BE USED
Info: SWITCHING ACTIVE
Info: SWITCHING ON           10
Info: SWITCHING OFF          12
Info: PAIRLIST DISTANCE      13.5
Info: PAIRLIST SHRINK RATE   0.01
Info: PAIRLIST GROW RATE     0.01
Info: PAIRLIST TRIGGER       0.3
Info: PAIRLISTS PER CYCLE    2
Info: PAIRLISTS ENABLED
Info: MARGIN                 0.48
Info: HYDROGEN GROUP CUTOFF  2.5
Info: PATCH DIMENSION        16.48
Info: ENERGY OUTPUT STEPS    500
Info: CROSSTERM ENERGY INCLUDED IN DIHEDRAL
Info: TIMING OUTPUT STEPS    5000
Info: PRESSURE OUTPUT STEPS  500
Info: HARMONIC CONSTRAINTS ACTIVE
Info: HARMONIC CONS EXP      2
Info: HARMONIC CONS SCALING  10
Info: LANGEVIN DYNAMICS ACTIVE
Info: LANGEVIN TEMPERATURE   300
Info: LANGEVIN USING BBK INTEGRATOR
Info: LANGEVIN DAMPING COEFFICIENT IS 5 INVERSE PS
Info: LANGEVIN DYNAMICS NOT APPLIED TO HYDROGENS
Info: BERENDSEN PRESSURE COUPLING ACTIVE
Info:     TARGET PRESSURE IS 1 BAR
Info:     COMPRESSIBILITY ESTIMATE IS 4.57e-05 BAR^(-1)
Info:     RELAXATION TIME IS 100 FS
Info:     APPLIED EVERY 2 STEPS
Info:     PRESSURE CONTROL IS GROUP-BASED
Info:       CELL FLUCTUATION IS ISOTROPIC
Info: PARTICLE MESH EWALD (PME) ACTIVE
Info: PME TOLERANCE               1e-06
Info: PME EWALD COEFFICIENT       0.257952
Info: PME INTERPOLATION ORDER     4
Info: PME GRID DIMENSIONS         80 96 80
Info: PME MAXIMUM GRID SPACING    1
Info: FULL ELECTROSTATIC EVALUATION FREQUENCY      2
Info: USING VERLET I (r-RESPA) MTS SCHEME.
Info: C1 SPLITTING OF LONG RANGE ELECTROSTATICS
Info: PLACING ATOMS IN PATCHES BY HYDROGEN GROUPS
Info: RIGID BONDS TO HYDROGEN : WATER
Info:         ERROR TOLERANCE : 1e-05
Info:          MAX ITERATIONS : 100
Info: RIGID WATER USING SETTLE ALGORITHM
Info: RANDOM NUMBER SEED     1503702038
Info: USE HYDROGEN BONDS?    NO
Info: Using AMBER format force field!
Info: AMBER PARM FILE        ../build/complex.top
Info: COORDINATE PDB         ../replicas/rep72/equilibration/eq1.coor
Info: Exclusions in PARM file will be ignored!
Info: SCNB (VDW SCALING)     2
Info: USING ARITHMETIC MEAN TO COMBINE L-J SIGMA PARAMETERS
Info: SUMMARY OF PARAMETERS:
Info: 71 BONDS
Info: 145 ANGLES
Info:   145 HARMONIC
Info:   0 COSINE-BASED
Info: 76 DIHEDRAL
Info: 0 IMPROPER
Info: 0 CROSSTERM
Info: 0 VDW
Info: 190 VDW_PAIRS
Info: 0 NBTHOLE_PAIRS
Info: STRUCTURE SUMMARY:
Info: 49394 ATOMS
Info: 49448 BONDS
Info: 8698 ANGLES
Info: 18780 DIHEDRALS
Info: 0 IMPROPERS
Info: 0 CROSSTERMS
Info: 0 EXCLUSIONS
Info: 2336 CONSTRAINTS
Info: 44667 RIGID BONDS
Info: 103515 DEGREES OF FREEDOM
Info: 17225 HYDROGEN GROUPS
Info: 4 ATOMS IN LARGEST HYDROGEN GROUP
Info: 17225 MIGRATION GROUPS
Info: 4 ATOMS IN LARGEST MIGRATION GROUP
Info: TOTAL MASS = 301478 amu
Info: TOTAL CHARGE = 1.00115e-05 e
Info: MASS DENSITY = 0.935846 g/cm^3
Info: ATOM DENSITY = 0.0923345 atoms/A^3
Info: ADDED 70656 IMPLICIT EXCLUSIONS
Info: NONBONDED TABLE R-SQUARED SPACING: 0.0625
Info: NONBONDED TABLE SIZE: 769 POINTS
Info: REMOVING COM VELOCITY 0.00990125 -0.00490129 0.00695248
TCL: Running for 5000 steps
ETITLE: TS BOND ANGLE DIHED IMPRP ELECT VDW BOUNDARY MISC KINETIC TOTAL TEMP POTENTIAL TOTAL3 TEMPAVG PRESSURE GPRESSURE VOLUME PRESSAVG GPRESSAVG
ENERGY: 0 405.8673 1212.6638 2904.8644 0.0000 -212757.7869 29531.2714 0.0000 0.0000 10078.0548 -168625.0652 97.9860 -178703.1200 -168615.3189 97.9860 -2377.5079 -2471.6583 534946.2959 -2377.5079 -2471.6583
ENERGY: 1000 1233.3023 1955.6179 3081.1656 0.0000 -193675.1680 26548.6378 778.4108 0.0000 24106.2434 -135971.7901 234.3779 -160078.0335 -135935.8316 218.8104 -55.4370 -21.3209 521977.7526 -17.6239 -18.2277
ENERGY: 2000 1426.1013 2157.5943 3110.6273 0.0000 -184214.1258 23381.0948 807.2653 0.0000 27904.3365 -125427.1062 271.3056 -153331.4428 -125393.8193 264.3337 -12.6288 -6.8167 516789.6319 -6.6422 -6.7512
ENERGY: 3000 1543.0134 2179.9057 3142.5982 0.0000 -178751.7827 21294.3422 814.3526 0.0000 29479.0617 -120298.5090 286.6162 -149777.5707 -120254.5867 284.5022 -28.8042 -26.4267 510883.2035 -21.8179 -21.4787
ENERGY: 4000 1573.7096 2239.4085 3140.0154 0.0000 -176644.6951 20787.5315 795.1990 0.0000 30116.9454 -117991.8857 292.8182 -148108.8312 -117946.8967 293.4243 58.0260 -11.2810 507817.7523 -10.6535 -10.8476
ENERGY: 5000 1508.2185 2270.1931 3120.2107 0.0000 -175926.4186 20358.1695 828.5219 0.0000 30636.3539 -117204.7509 297.8682 -147841.1048 -117158.7545 296.8602 45.5625 -4.3194 506495.4651 0.4648 0.1246
TCL: Setting parameter constraintScaling to 5.0
TCL: Running for 5000 steps
ETITLE: TS BOND ANGLE DIHED IMPRP ELECT VDW BOUNDARY MISC KINETIC TOTAL TEMP POTENTIAL TOTAL3 TEMPAVG PRESSURE GPRESSURE VOLUME PRESSAVG GPRESSAVG
ENERGY: 5000 1508.2185 2270.1931 3120.2107 0.0000 -175926.4186 20358.1695 414.2610 0.0000 30634.3152 -117621.0505 297.8484 -148255.3658 -117579.1256 297.8484 5.9048 -46.1726 506495.4651 5.9048 -46.1726
ENERGY: 6000 1590.0839 2295.0481 3132.7093 0.0000 -175362.2384 20138.3392 632.9028 0.0000 31011.8518 -116561.3032 301.5191 -147573.1551 -116520.0496 299.1878 -39.9734 22.7126 504964.8659 3.4067 3.2051
ENERGY: 7000 1607.8926 2295.2094 3138.3581 0.0000 -175289.8643 20026.1547 610.7365 0.0000 30820.3030 -116791.2100 299.6567 -147611.5130 -116734.9518 300.2993 10.0491 -18.8637 502348.9102 -1.9307 -2.1184
ENERGY: 8000 1603.5791 2323.7482 3199.8116 0.0000 -175828.4461 20346.0645 675.0649 0.0000 30783.9560 -116896.2218 299.3033 -147680.1778 -116838.7622 300.7446 -63.9489 -23.7699 502222.8279 -7.9904 -7.7748
ENERGY: 9000 1587.4688 2307.7316 3160.2093 0.0000 -175600.9995 20379.8312 687.7419 0.0000 30960.2214 -116517.7954 301.0171 -147478.0168 -116478.3573 300.9313 29.7045 -17.1106 502107.6516 5.0544 4.9683
ENERGY: 10000 1606.9240 2297.5009 3174.7201 0.0000 -175711.2652 20214.9994 679.1521 0.0000 30514.3287 -117223.6401 296.6818 -147737.9688 -117185.3983 299.5952 -89.4984 -1.0418 502074.7468 3.1545 3.5831
TCL: Setting parameter constraintScaling to 2.5
TCL: Running for 5000 steps
ETITLE: TS BOND ANGLE DIHED IMPRP ELECT VDW BOUNDARY MISC KINETIC TOTAL TEMP POTENTIAL TOTAL3 TEMPAVG PRESSURE GPRESSURE VOLUME PRESSAVG GPRESSAVG
ENERGY: 10000 1606.9240 2297.5009 3174.7201 0.0000 -175711.2652 20214.9994 339.5761 0.0000 30512.2489 -117565.2959 296.6616 -148077.5448 -117522.7082 296.6616 -108.5992 -26.3622 502074.7468 -108.5992 -26.3622
ENERGY: 11000 1555.5903 2359.7525 3180.0355 0.0000 -175303.7071 19883.2559 505.1582 0.0000 30999.6423 -116820.2724 301.4004 -147819.9146 -116777.4244 298.9991 -6.0491 -46.9210 501845.8651 6.4180 6.5768
ENERGY: 12000 1567.5787 2390.3311 3182.4477 0.0000 -175521.3203 20201.6358 522.1811 0.0000 30845.9816 -116811.1643 299.9064 -147657.1459 -116776.0820 300.4669 18.1589 34.0036 500524.4919 -8.8305 -9.1002
ENERGY: 13000 1633.4614 2385.7664 3164.5050 0.0000 -175667.6358 20232.7794 495.2722 0.0000 30833.4264 -116922.4250 299.7843 -147755.8513 -116868.4287 300.4436 77.2858 74.4347 501171.4252 9.3528 9.0018
ENERGY: 14000 1654.9900 2321.7258 3157.1445 0.0000 -175567.9999 20259.1334 524.9840 0.0000 30761.1603 -116888.8619 299.0817 -147650.0222 -116838.7464 299.7779 -1.0780 -13.3224 501441.2948 1.2615 1.0315
ENERGY: 15000 1587.4313 2309.2453 3163.3689 0.0000 -175592.0433 20179.5282 520.4492 0.0000 30924.3929 -116907.6275 300.6687 -147832.0204 -116858.5291 299.6337 -85.7787 -75.5524 500447.3284 -7.3147 -7.5778
TCL: Setting parameter constraintScaling to 1.25
TCL: Running for 5000 steps
ETITLE: TS BOND ANGLE DIHED IMPRP ELECT VDW BOUNDARY MISC KINETIC TOTAL TEMP POTENTIAL TOTAL3 TEMPAVG PRESSURE GPRESSURE VOLUME PRESSAVG GPRESSAVG
ENERGY: 15000 1587.4313 2309.2453 3163.3689 0.0000 -175592.0433 20179.5282 260.2246 0.0000 30922.3320 -117169.9130 300.6487 -148092.2450 -117124.6888 300.6487 -125.5542 -103.3851 500447.3284 -125.5542 -103.3851
ENERGY: 16000 1596.1957 2335.9567 3159.6783 0.0000 -175646.4873 20223.1346 429.2034 0.0000 30961.7429 -116940.5757 301.0319 -147902.3186 -116894.5836 300.4319 -89.3907 -70.9988 500291.2137 1.2411 1.1253
ENERGY: 17000 1656.9846 2442.2973 3195.2836 0.0000 -175510.6264 20127.7316 417.2384 0.0000 30951.1400 -116719.9509 300.9288 -147671.0909 -116674.2288 301.4249 -21.2129 50.4968 499513.2608 -6.5743 -6.7182
ENERGY: 18000 1569.7643 2316.8710 3178.7415 0.0000 -175960.8062 20254.5571 413.7789 0.0000 30908.1803 -117318.9130 300.5111 -148227.0933 -117267.6494 299.9091 48.5158 83.5453 500317.6645 9.4051 9.1534
ENERGY: 19000 1642.6304 2356.3562 3163.0326 0.0000 -175533.6650 19991.1456 405.5420 0.0000 30670.4353 -117304.5229 298.1996 -147974.9582 -117265.9454 299.6430 -39.8059 -13.4749 498839.0369 -4.5835 -4.2085
ENERGY: 20000 1599.2687 2417.5002 3181.4223 0.0000 -175405.9344 19918.8442 404.2107 0.0000 31004.9720 -116879.7165 301.4522 -147884.6885 -116824.2283 301.0834 -30.6537 33.3910 499490.3510 12.7605 13.0984
TCL: Setting parameter constraintScaling to 0.625
TCL: Running for 5000 steps
ETITLE: TS BOND ANGLE DIHED IMPRP ELECT VDW BOUNDARY MISC KINETIC TOTAL TEMP POTENTIAL TOTAL3 TEMPAVG PRESSURE GPRESSURE VOLUME PRESSAVG GPRESSAVG
ENERGY: 20000 1599.2687 2417.5002 3181.4223 0.0000 -175405.9344 19918.8442 202.1054 0.0000 31002.9303 -117083.8636 301.4323 -148086.7938 -117039.0816 301.4323 -101.2257 -38.7142 499490.3510 -101.2257 -38.7142
ENERGY: 21000 1629.0945 2377.7234 3206.3168 0.0000 -175571.9493 20041.9028 311.1192 0.0000 30800.5832 -117205.2094 299.4650 -148005.7925 -117152.4592 300.1842 -69.1504 -17.8945 498892.4875 -3.3289 -2.7884
ENERGY: 22000 1688.2041 2353.1409 3179.0296 0.0000 -175917.9780 20060.5391 329.5166 0.0000 30660.8017 -117646.7460 298.1059 -148307.5477 -117599.2399 298.6839 -182.6677 -60.8453 496782.1802 -12.4819 -12.7531
ENERGY: 23000 1584.3366 2411.7913 3191.8625 0.0000 -175588.8612 20026.1442 310.5966 0.0000 30731.7815 -117332.3486 298.7960 -148064.1301 -117291.0710 300.0680 83.1466 126.1865 497946.6296 5.6549 5.2005
ENERGY: 24000 1633.3666 2343.5440 3190.4204 0.0000 -175535.4138 20009.6607 312.0211 0.0000 30901.5658 -117144.8351 300.4468 -148046.4010 -117097.7017 300.2529 14.4541 -7.7870 499933.2715 14.3545 14.4775
ENERGY: 25000 1666.6062 2390.8222 3184.8058 0.0000 -175787.3455 20098.0850 333.3733 0.0000 30920.4743 -117193.1788 300.6306 -148113.6531 -117145.7465 300.3606 1.9759 55.1407 498385.9573 8.1368 7.7626
TCL: Setting parameter constraintScaling to 0.3125
TCL: Running for 5000 steps
ETITLE: TS BOND ANGLE DIHED IMPRP ELECT VDW BOUNDARY MISC KINETIC TOTAL TEMP POTENTIAL TOTAL3 TEMPAVG PRESSURE GPRESSURE VOLUME PRESSAVG GPRESSAVG
ENERGY: 25000 1666.6062 2390.8222 3184.8058 0.0000 -175787.3455 20098.0850 166.6866 0.0000 30918.4485 -117361.8913 300.6109 -148280.3398 -117320.5173 300.6109 -49.1534 -1.0506 498385.9573 -49.1534 -1.0506
ENERGY: 26000 1641.8975 2414.9688 3238.4302 0.0000 -176044.4596 20274.3884 224.5820 0.0000 30652.9744 -117597.2183 298.0298 -148250.1928 -117548.0111 299.5576 1.7528 44.3184 498900.0138 2.0201 1.8027
ENERGY: 27000 1616.8422 2386.5757 3227.6292 0.0000 -175635.9147 20035.5836 241.3330 0.0000 30772.7277 -117355.2234 299.1941 -148127.9511 -117299.8571 300.4571 88.1910 49.7427 497551.1654 -8.5006 -8.6044
ENERGY: 28000 1582.3466 2400.1620 3187.7877 0.0000 -176101.3376 20260.0334 243.3578 0.0000 30594.1467 -117833.5034 297.4579 -148427.6501 -117792.8250 299.0417 -115.0042 -68.8335 497921.1579 2.5987 2.8966
ENERGY: 29000 1625.7432 2443.1928 3161.2127 0.0000 -175394.9848 19722.0077 270.3457 0.0000 30918.4901 -117253.9927 300.6114 -148172.4828 -117218.4466 299.8790 -42.8201 -1.5730 497991.6241 2.1319 2.8651
ENERGY: 30000 1552.3365 2356.9329 3223.4987 0.0000 -175581.5956 19791.2947 247.3361 0.0000 30910.4323 -117499.7644 300.5330 -148410.1966 -117451.2646 299.1745 -11.0993 23.1374 497001.3882 1.7274 1.9064
TCL: Setting parameter constraintScaling to 0.15625
TCL: Running for 5000 steps
ETITLE: TS BOND ANGLE DIHED IMPRP ELECT VDW BOUNDARY MISC KINETIC TOTAL TEMP POTENTIAL TOTAL3 TEMPAVG PRESSURE GPRESSURE VOLUME PRESSAVG GPRESSAVG
ENERGY: 30000 1552.3365 2356.9329 3223.4987 0.0000 -175581.5956 19791.2947 123.6681 0.0000 30908.3670 -117625.4977 300.5129 -148533.8647 -117583.7130 300.5129 -62.6668 -27.3953 497001.3882 -62.6668 -27.3953
ENERGY: 31000 1649.3388 2392.1297 3197.1578 0.0000 -175899.5840 20101.6218 192.1347 0.0000 30841.8673 -117525.3339 299.8664 -148367.2012 -117475.4739 300.1773 -54.8040 11.8495 497161.9201 -8.2547 -8.7314
ENERGY: 32000 1623.2843 2378.1832 3198.7145 0.0000 -175959.4841 20252.5339 194.7683 0.0000 30507.7179 -117804.2821 296.6175 -148312.0000 -117748.2937 299.4551 70.0340 103.2471 498240.6857 2.5572 2.4722
ENERGY: 33000 1672.0723 2373.9827 3216.9858 0.0000 -175652.0718 19944.7704 187.2066 0.0000 30880.4212 -117376.6328 300.2412 -148257.0540 -117323.9516 300.5683 1.8295 23.0817 498709.0144 10.5362 10.4498
ENERGY: 34000 1620.3043 2473.6191 3222.6809 0.0000 -176397.4362 20266.1553 199.9683 0.0000 30747.0273 -117867.6810 298.9443 -148614.7083 -117826.5196 299.1058 -47.9048 26.5177 495992.1873 -23.9189 -23.6873
ENERGY: 35000 1609.9602 2425.7377 3205.2311 0.0000 -176458.5369 20451.5304 213.3966 0.0000 30580.1466 -117972.5342 297.3217 -148552.6808 -117927.7161 297.5255 -27.1888 76.0318 495969.2457 2.6111 2.3621
TCL: Setting parameter constraintScaling to 0.078125
TCL: Running for 5000 steps
ETITLE: TS BOND ANGLE DIHED IMPRP ELECT VDW BOUNDARY MISC KINETIC TOTAL TEMP POTENTIAL TOTAL3 TEMPAVG PRESSURE GPRESSURE VOLUME PRESSAVG GPRESSAVG
ENERGY: 35000 1609.9602 2425.7377 3205.2311 0.0000 -176458.5369 20451.5304 106.6983 0.0000 30578.0839 -118081.2953 297.3017 -148659.3791 -118041.3320 297.3017 -29.6564 80.5531 495969.2457 -29.6564 80.5531
ENERGY: 36000 1670.1600 2335.4738 3185.3794 0.0000 -176397.3995 20341.1288 148.9678 0.0000 30871.4681 -117844.8217 300.1542 -148716.2898 -117793.1955 298.3126 -31.9259 -22.8988 496872.1559 10.1581 9.9082
ENERGY: 37000 1696.6897 2367.0002 3199.0158 0.0000 -176200.5098 20097.3562 169.9942 0.0000 30872.3763 -117798.0774 300.1630 -148670.4538 -117756.3228 298.9621 -193.5364 -79.6823 497437.9844 6.7263 6.5587
ENERGY: 38000 1694.5893 2420.9614 3174.5822 0.0000 -175825.4773 20055.3171 161.3676 0.0000 30979.4794 -117339.1803 301.2043 -148318.6597 -117288.7521 300.2223 -136.3571 -68.1149 496835.9060 6.3601 6.2109
ENERGY: 39000 1642.7523 2421.2924 3181.2791 0.0000 -175459.8688 19805.5118 170.2618 0.0000 30871.5984 -117367.1730 300.1554 -148238.7714 -117318.9633 300.3882 -24.5705 -30.3038 497974.9128 4.4934 4.6968
ENERGY: 40000 1621.2558 2409.8614 3183.1199 0.0000 -175469.4580 19945.9005 163.0092 0.0000 30990.6561 -117155.6550 301.3130 -148146.3111 -117104.0375 299.6790 -82.3844 16.7716 497974.5208 9.2125 9.8111
TCL: Setting parameter constraintScaling to 0.0390625
TCL: Running for 5000 steps
ETITLE: TS BOND ANGLE DIHED IMPRP ELECT VDW BOUNDARY MISC KINETIC TOTAL TEMP POTENTIAL TOTAL3 TEMPAVG PRESSURE GPRESSURE VOLUME PRESSAVG GPRESSAVG
ENERGY: 40000 1621.2558 2409.8614 3183.1199 0.0000 -175469.4580 19945.9005 81.5046 0.0000 30988.6138 -117239.2019 301.2931 -148227.8157 -117195.9888 301.2931 -98.5485 -0.4931 497974.5208 -98.5485 -0.4931
ENERGY: 41000 1630.6857 2342.2321 3197.7811 0.0000 -175894.6639 20118.8920 109.9383 0.0000 30841.6994 -117653.4352 299.8647 -148495.1346 -117605.4192 299.8718 -53.3770 35.5481 497580.3306 7.2571 7.0117
ENERGY: 42000 1614.7183 2373.7833 3171.5375 0.0000 -175887.1659 20095.1144 118.1755 0.0000 30664.2576 -117849.5794 298.1395 -148513.8369 -117796.5942 298.9167 -29.3665 104.5492 496551.0817 3.5584 4.2907
ENERGY: 43000 1659.8664 2377.2377 3189.2789 0.0000 -176017.6542 20232.0435 115.9679 0.0000 30749.8778 -117693.3819 298.9720 -148443.2598 -117653.0595 299.5990 -86.3713 22.5390 497979.7794 4.8103 5.7301
ENERGY: 44000 1683.0794 2407.7737 3168.5747 0.0000 -176184.4393 20298.5637 123.6300 0.0000 31051.4825 -117451.3352 301.9044 -148502.8177 -117404.8252 300.3015 -166.5942 -62.0533 497915.5685 6.6963 6.0952
ENERGY: 45000 1680.4643 2374.5773 3214.1062 0.0000 -176011.0422 19924.9081 114.4690 0.0000 30974.6391 -117727.8782 301.1573 -148702.5173 -117680.4299 300.0975 -166.5610 -118.8763 496506.9940 -4.1892 -3.5976
TCL: Setting parameter constraintScaling to 0.01953125
TCL: Running for 5000 steps
ETITLE: TS BOND ANGLE DIHED IMPRP ELECT VDW BOUNDARY MISC KINETIC TOTAL TEMP POTENTIAL TOTAL3 TEMPAVG PRESSURE GPRESSURE VOLUME PRESSAVG GPRESSAVG
ENERGY: 45000 1680.4643 2374.5773 3214.1062 0.0000 -176011.0422 19924.9081 57.2345 0.0000 30972.5635 -117787.1883 301.1371 -148759.7518 -117744.3029 301.1371 -178.9579 -135.6012 496506.9940 -178.9579 -135.6012
ENERGY: 46000 1675.8055 2388.1343 3213.1970 0.0000 -175719.3893 20032.8862 75.5868 0.0000 30751.2432 -117582.5363 298.9853 -148333.7795 -117534.0049 300.0640 42.8479 20.8627 496607.8330 3.1390 2.8860
ENERGY: 47000 1599.5120 2445.8719 3238.7223 0.0000 -175824.2729 19904.7752 75.1123 0.0000 30817.0064 -117743.2727 299.6247 -148560.2791 -117702.9102 299.7486 -28.6626 -17.3511 496476.8863 3.7256 3.9223
ENERGY: 48000 1671.5117 2393.8029 3227.5443 0.0000 -175712.6389 20086.4599 79.5264 0.0000 30848.8757 -117404.9180 299.9345 -148253.7937 -117362.5210 300.5103 48.7687 52.9367 495981.3065 -0.6228 -0.3311
ENERGY: 49000 1624.2256 2416.2985 3226.0005 0.0000 -175889.9437 19949.1414 80.8711 0.0000 30866.5498 -117726.8569 300.1063 -148593.4066 -117675.0731 300.2685 -84.3034 -29.9770 495867.9130 4.0825 3.6663
ENERGY: 50000 1685.5366 2401.7609 3193.2542 0.0000 -175703.7771 19841.7695 79.0536 0.0000 30641.6176 -117860.7847 297.9194 -148502.4023 -117826.9975 299.0819 23.5716 -66.3968 494594.8772 -7.8426 -7.9169
TCL: Setting parameter constraintScaling to 0
TCL: Running for 5000 steps
ETITLE: TS BOND ANGLE DIHED IMPRP ELECT VDW BOUNDARY MISC KINETIC TOTAL TEMP POTENTIAL TOTAL3 TEMPAVG PRESSURE GPRESSURE VOLUME PRESSAVG GPRESSAVG
ENERGY: 50000 1685.5366 2401.7609 3193.2542 0.0000 -175703.7771 19841.7695 0.0000 0.0000 30639.5820 -117941.8739 297.8996 -148581.4559 -117903.2278 297.8996 -5.8585 -94.0726 494594.8772 -5.8585 -94.0726
ENERGY: 51000 1618.8636 2430.9162 3198.1832 0.0000 -176174.0290 20075.7628 0.0000 0.0000 30666.1750 -118184.1282 298.1582 -148850.3032 -118133.1599 298.8681 -125.0928 -57.7302 495517.4569 17.5307 18.0711
ENERGY: 52000 1638.9954 2417.7369 3201.8152 0.0000 -176074.3193 20092.3784 0.0000 0.0000 30693.8325 -118029.5607 298.4271 -148723.3933 -117991.5877 299.3642 -55.5237 -23.9479 496662.4204 0.9622 0.9727
ENERGY: 53000 1652.0983 2352.9109 3242.7617 0.0000 -175900.0702 20060.2618 0.0000 0.0000 30749.1953 -117842.8422 298.9653 -148592.0376 -117800.9417 299.4782 -176.7102 -53.8427 496147.4752 -1.0264 -0.4331
ENERGY: 54000 1588.1116 2397.5383 3225.7593 0.0000 -175273.2858 19856.4624 0.0000 0.0000 30872.8925 -117332.5217 300.1680 -148205.4143 -117283.8315 300.8809 3.3669 -2.2484 498297.7032 3.0822 3.4366
ENERGY: 55000 1646.8721 2393.7108 3187.2914 0.0000 -175838.3141 20061.6674 0.0000 0.0000 30829.0993 -117719.6731 299.7422 -148548.7724 -117665.7698 299.5181 -31.1696 -7.1232 496777.9301 2.3538 1.9292
