Info: SIMULATION PARAMETERS:
Info: TIMESTEP               1
Info: NUMBER OF STEPS        0
Info: STEPS PER CYCLE        10
Info: PERIODIC CELL BASIS 1  72.449 0 0
Info: PERIODIC CELL BASIS 2  0 93.247 0
Info: PERIODIC CELL BASIS 3  0 0 79.185
Info: PERIODIC CELL CENTER   -0.248 -0.156 -0.047
Info: WRAPPING WATERS AROUND PERIODIC BOUNDARIES ON OUTPUT.
Info: WRAPPING ALL CLUSTERS AROUND PERIODIC BOUNDARIES ON OUTPUT.
Info: FIRST LDB TIMESTEP     50
Info: LAST LDB TIMESTEP     -1
Info: HOM BACKGROUND SCALING 1
Info: PME BACKGROUND SCALING 1
Info: MIN ATOMS PER PATCH    40
Info: VELOCITY FILE          ../replicas/rep33/equilibration/eq1.vel
Info: CENTER OF MASS MOVING INITIALLY? NO
Info: DIELECTRIC             1
Info: EXCLUDE                SCALED ONE-FOUR
Info: 1-4 ELECTROSTATICS SCALED BY 0.833333
Info: MODIFIED 1-4 VDW PARAMETERS WILL BE USED
Info: DCD FILENAME           ../replicas/rep33/equilibration/eq2.dcd
Info: DCD FREQUENCY          5000
Info: DCD FIRST STEP         5000
Info: DCD FILE WILL CONTAIN UNIT CELL DATA
Info: XST FILENAME           ../replicas/rep33/equilibration/eq2.xst
Info: XST FREQUENCY          5000
Info: NO VELOCITY DCD OUTPUT
Info: NO FORCE DCD OUTPUT
Info: OUTPUT FILENAME        ../replicas/rep33/equilibration/eq2
Info: RESTART FILENAME       ../replicas/rep33/equilibration/eq2.restart
Info: RESTART FREQUENCY      5000
Info: BINARY RESTART FILES WILL BE USED
Info: SWITCHING ACTIVE
Info: SWITCHING ON           10
Info: SWITCHING OFF          12
Info: PAIRLIST DISTANCE      13.5
Info: PAIRLIST SHRINK RATE   0.01
Info: PAIRLIST GROW RATE     0.01
Info: PAIRLIST TRIGGER       0.3
Info: PAIRLISTS PER CYCLE    2
Info: PAIRLISTS ENABLED
Info: MARGIN                 0.48
Info: HYDROGEN GROUP CUTOFF  2.5
Info: PATCH DIMENSION        16.48
Info: ENERGY OUTPUT STEPS    500
Info: CROSSTERM ENERGY INCLUDED IN DIHEDRAL
Info: TIMING OUTPUT STEPS    5000
Info: PRESSURE OUTPUT STEPS  500
Info: HARMONIC CONSTRAINTS ACTIVE
Info: HARMONIC CONS EXP      2
Info: HARMONIC CONS SCALING  10
Info: LANGEVIN DYNAMICS ACTIVE
Info: LANGEVIN TEMPERATURE   300
Info: LANGEVIN USING BBK INTEGRATOR
Info: LANGEVIN DAMPING COEFFICIENT IS 5 INVERSE PS
Info: LANGEVIN DYNAMICS NOT APPLIED TO HYDROGENS
Info: BERENDSEN PRESSURE COUPLING ACTIVE
Info:     TARGET PRESSURE IS 1 BAR
Info:     COMPRESSIBILITY ESTIMATE IS 4.57e-05 BAR^(-1)
Info:     RELAXATION TIME IS 100 FS
Info:     APPLIED EVERY 2 STEPS
Info:     PRESSURE CONTROL IS GROUP-BASED
Info:       CELL FLUCTUATION IS ISOTROPIC
Info: PARTICLE MESH EWALD (PME) ACTIVE
Info: PME TOLERANCE               1e-06
Info: PME EWALD COEFFICIENT       0.257952
Info: PME INTERPOLATION ORDER     4
Info: PME GRID DIMENSIONS         80 96 80
Info: PME MAXIMUM GRID SPACING    1
Info: FULL ELECTROSTATIC EVALUATION FREQUENCY      2
Info: USING VERLET I (r-RESPA) MTS SCHEME.
Info: C1 SPLITTING OF LONG RANGE ELECTROSTATICS
Info: PLACING ATOMS IN PATCHES BY HYDROGEN GROUPS
Info: RIGID BONDS TO HYDROGEN : WATER
Info:         ERROR TOLERANCE : 1e-05
Info:          MAX ITERATIONS : 100
Info: RIGID WATER USING SETTLE ALGORITHM
Info: RANDOM NUMBER SEED     1503715923
Info: USE HYDROGEN BONDS?    NO
Info: Using AMBER format force field!
Info: AMBER PARM FILE        ../build/complex.top
Info: COORDINATE PDB         ../replicas/rep33/equilibration/eq1.coor
Info: Exclusions in PARM file will be ignored!
Info: SCNB (VDW SCALING)     2
Info: USING ARITHMETIC MEAN TO COMBINE L-J SIGMA PARAMETERS
Info: SUMMARY OF PARAMETERS:
Info: 71 BONDS
Info: 145 ANGLES
Info: 76 DIHEDRAL
Info: 0 IMPROPER
Info: 0 CROSSTERM
Info: 0 VDW
Info: 190 VDW_PAIRS
Info: 0 NBTHOLE_PAIRS
Info: STRUCTURE SUMMARY:
Info: 49394 ATOMS
Info: 49448 BONDS
Info: 8698 ANGLES
Info: 18780 DIHEDRALS
Info: 0 IMPROPERS
Info: 0 CROSSTERMS
Info: 0 EXCLUSIONS
Info: 2336 CONSTRAINTS
Info: 44667 RIGID BONDS
Info: 103515 DEGREES OF FREEDOM
Info: 17225 HYDROGEN GROUPS
Info: 4 ATOMS IN LARGEST HYDROGEN GROUP
Info: 17225 MIGRATION GROUPS
Info: 4 ATOMS IN LARGEST MIGRATION GROUP
Info: TOTAL MASS = 301478 amu
Info: TOTAL CHARGE = 1.00115e-05 e
Info: MASS DENSITY = 0.935846 g/cm^3
Info: ATOM DENSITY = 0.0923345 atoms/A^3
Info: ADDED 70656 IMPLICIT EXCLUSIONS
Info: NONBONDED TABLE R-SQUARED SPACING: 0.0625
Info: NONBONDED TABLE SIZE: 769 POINTS
Info: REMOVING COM VELOCITY -0.000730349 0.0015921 -0.0207511
TCL: Running for 5000 steps
ETITLE: TS BOND ANGLE DIHED IMPRP ELECT VDW BOUNDARY MISC KINETIC TOTAL TEMP POTENTIAL TOTAL3 TEMPAVG PRESSURE GPRESSURE VOLUME PRESSAVG GPRESSAVG
ENERGY: 0 384.5438 1260.2616 2934.4732 0.0000 -212961.6453 29796.4274 0.0000 0.0000 10077.3058 -168508.6334 97.9787 -178585.9392 -168498.7351 97.9787 -2224.5494 -2322.4594 534946.2959 -2224.5494 -2322.4594
ENERGY: 1000 1284.5030 1998.5926 3115.2023 0.0000 -193372.5024 26438.7249 777.8633 0.0000 24066.0640 -135691.5523 233.9872 -159757.6163 -135653.6543 218.6356 18.2661 -5.7998 523692.9267 -11.6256 -11.6392
ENERGY: 2000 1438.7368 2139.8728 3144.6881 0.0000 -184289.9541 23695.0318 802.7415 0.0000 27657.9622 -125410.9210 268.9102 -153068.8831 -125375.4250 263.4298 -9.7479 -38.6901 517314.5030 -30.9108 -31.0021
ENERGY: 3000 1513.3842 2190.6409 3163.1623 0.0000 -179195.7886 21739.6677 831.3474 0.0000 29730.4585 -120027.1277 289.0605 -149757.5861 -119986.5267 285.9249 13.1881 -22.9297 512428.6160 -16.4450 -16.6546
ENERGY: 4000 1604.3861 2260.7696 3127.7374 0.0000 -177129.6185 21044.1174 816.5186 0.0000 30290.6990 -117985.3905 294.5075 -148276.0894 -117957.8029 293.8449 34.8147 5.9405 508039.8722 -6.9317 -7.3359
ENERGY: 5000 1575.3310 2255.8997 3145.2073 0.0000 -176268.6978 20504.2837 813.1083 0.0000 30757.1172 -117217.7507 299.0424 -147974.8678 -117180.1666 296.8166 -34.5906 10.4351 504043.8069 -21.5778 -21.4324
TCL: Setting parameter constraintScaling to 5.0
TCL: Running for 5000 steps
ETITLE: TS BOND ANGLE DIHED IMPRP ELECT VDW BOUNDARY MISC KINETIC TOTAL TEMP POTENTIAL TOTAL3 TEMPAVG PRESSURE GPRESSURE VOLUME PRESSAVG GPRESSAVG
ENERGY: 5000 1575.3310 2255.8997 3145.2073 0.0000 -176268.6978 20504.2837 406.5542 0.0000 30755.0791 -117626.3429 299.0226 -148381.4220 -117580.6905 299.0226 -44.3050 0.9576 504043.8069 -44.3050 0.9576
ENERGY: 6000 1585.1384 2279.6678 3169.0239 0.0000 -175747.8649 20250.3013 668.1260 0.0000 30917.9520 -116877.6556 300.6061 -147795.6076 -116823.5009 298.2095 -52.6120 16.9846 501882.7486 -12.5504 -12.2316
ENERGY: 7000 1601.8916 2349.2333 3174.0092 0.0000 -175307.2920 19954.7607 639.4981 0.0000 30866.2381 -116721.6610 300.1033 -147587.8991 -116670.6071 299.2155 -56.3142 0.0356 503462.1349 16.1751 15.9717
ENERGY: 8000 1603.2312 2293.8057 3170.2611 0.0000 -175523.5112 20181.7799 650.3940 0.0000 30790.4684 -116833.5710 299.3666 -147624.0394 -116788.5710 299.0553 -14.6338 26.0887 502291.9731 9.0906 8.6392
ENERGY: 9000 1589.9447 2307.5373 3184.8001 0.0000 -175583.8565 20168.6480 654.5557 0.0000 30813.6656 -116864.7051 299.5922 -147678.3707 -116813.0804 300.2453 40.6621 -7.3654 501730.7186 2.9203 3.2525
ENERGY: 10000 1584.3235 2318.6769 3199.6890 0.0000 -175224.2584 19927.8939 645.8599 0.0000 30713.0497 -116834.7656 298.6139 -147547.8153 -116786.6447 300.2247 -21.2122 51.7483 501778.9030 5.1193 4.4558
TCL: Setting parameter constraintScaling to 2.5
TCL: Running for 5000 steps
ETITLE: TS BOND ANGLE DIHED IMPRP ELECT VDW BOUNDARY MISC KINETIC TOTAL TEMP POTENTIAL TOTAL3 TEMPAVG PRESSURE GPRESSURE VOLUME PRESSAVG GPRESSAVG
ENERGY: 10000 1584.3235 2318.6769 3199.6890 0.0000 -175224.2584 19927.8939 322.9299 0.0000 30711.0029 -117159.7423 298.5940 -147870.7452 -117115.0411 298.5940 -92.1568 -21.9468 501778.9030 -92.1568 -21.9468
ENERGY: 11000 1627.0010 2363.1038 3193.4860 0.0000 -175200.6883 19942.0838 508.9030 0.0000 30747.1136 -116818.9972 298.9451 -147566.1108 -116762.7202 300.3150 -63.3286 15.6883 501335.4078 -2.5441 -2.8441
ENERGY: 12000 1631.3003 2332.6976 3168.2842 0.0000 -175259.0597 19795.1919 487.0084 0.0000 30792.8890 -117051.6884 299.3902 -147844.5774 -117013.3710 299.8213 -93.9554 -18.3756 499456.9707 -5.6195 -5.5198
ENERGY: 13000 1623.4981 2315.2880 3168.3994 0.0000 -176009.7729 20315.9932 480.0459 0.0000 30893.7935 -117212.7548 300.3712 -148106.5483 -117168.4624 299.4899 -17.6441 41.9855 500264.2962 1.9367 2.1289
ENERGY: 14000 1691.7612 2352.8406 3158.5246 0.0000 -175833.1209 20262.4822 512.7295 0.0000 30746.2398 -117108.5432 298.9366 -147854.7830 -117054.9892 300.0503 -107.4808 -14.8063 501393.1977 13.1454 13.0783
ENERGY: 15000 1668.9196 2312.7447 3169.0260 0.0000 -175566.9604 20053.8197 503.4618 0.0000 30821.5307 -117037.4578 299.6686 -147858.9886 -116984.0062 300.0848 29.9684 9.1170 500310.1992 -7.6858 -7.6318
TCL: Setting parameter constraintScaling to 1.25
TCL: Running for 5000 steps
ETITLE: TS BOND ANGLE DIHED IMPRP ELECT VDW BOUNDARY MISC KINETIC TOTAL TEMP POTENTIAL TOTAL3 TEMPAVG PRESSURE GPRESSURE VOLUME PRESSAVG GPRESSAVG
ENERGY: 15000 1668.9196 2312.7447 3169.0260 0.0000 -175566.9604 20053.8197 251.7309 0.0000 30819.4964 -117291.2231 299.6489 -148110.7195 -117248.8743 299.6489 -27.2379 -45.9691 500310.1992 -27.2379 -45.9691
ENERGY: 16000 1558.9345 2371.3742 3170.9478 0.0000 -175405.1332 19935.6419 394.6461 0.0000 30678.0757 -117295.5130 298.2739 -147973.5887 -117252.8920 298.3600 -160.4816 -52.1592 499473.2419 4.9486 5.2720
ENERGY: 17000 1582.6507 2357.2392 3195.4198 0.0000 -175500.3071 19941.5502 412.9599 0.0000 30926.3455 -117084.1417 300.6877 -148010.4872 -117037.2591 299.3981 -19.0788 -35.8175 499756.5076 0.3673 0.3735
ENERGY: 18000 1611.9993 2351.5386 3200.6667 0.0000 -175700.1212 20091.1455 423.0383 0.0000 30700.3337 -117321.3992 298.4903 -148021.7329 -117268.4090 299.8142 5.2182 -3.2553 498745.1525 -11.7429 -11.6524
ENERGY: 19000 1642.7287 2324.0421 3176.3457 0.0000 -175643.2050 20179.0437 414.7368 0.0000 30728.9057 -117177.4024 298.7681 -147906.3081 -117126.8920 300.4855 42.8550 -9.6381 498871.6839 1.3452 0.9498
ENERGY: 20000 1630.2237 2362.0179 3213.8024 0.0000 -175692.4435 20101.6166 405.2319 0.0000 30627.3868 -117352.1641 297.7810 -147979.5509 -117316.1223 299.2604 -77.2101 -7.6288 498011.0024 -13.0015 -13.2507
TCL: Setting parameter constraintScaling to 0.625
TCL: Running for 5000 steps
ETITLE: TS BOND ANGLE DIHED IMPRP ELECT VDW BOUNDARY MISC KINETIC TOTAL TEMP POTENTIAL TOTAL3 TEMPAVG PRESSURE GPRESSURE VOLUME PRESSAVG GPRESSAVG
ENERGY: 20000 1630.2237 2362.0179 3213.8024 0.0000 -175692.4435 20101.6166 202.6160 0.0000 30625.3075 -117556.8594 297.7608 -148182.1669 -117510.3537 297.7608 -74.2478 -9.3208 498011.0024 -74.2478 -9.3208
ENERGY: 21000 1593.4636 2379.6143 3201.9401 0.0000 -175393.7295 19947.7611 314.5157 0.0000 30802.4883 -117153.9464 299.4835 -147956.4347 -117111.8063 300.5075 -70.4159 -55.5595 498789.2355 3.0512 2.8335
ENERGY: 22000 1609.4240 2406.7720 3230.3410 0.0000 -175905.3360 20243.2680 302.6343 0.0000 30634.7767 -117478.1199 297.8529 -148112.8966 -117438.9924 299.7831 0.3565 19.1210 497204.5768 -6.0932 -6.1981
ENERGY: 23000 1584.4107 2399.5131 3228.6188 0.0000 -176176.6980 20105.7346 324.4744 0.0000 30857.2676 -117676.6787 300.0161 -148533.9464 -117641.0923 298.9054 -106.8893 -69.3343 497861.6471 -2.3752 -2.3852
ENERGY: 24000 1645.5984 2417.2617 3218.8732 0.0000 -176051.0522 20102.4084 312.7248 0.0000 30753.5166 -117600.6691 299.0074 -148354.1857 -117567.2148 299.4231 -72.0134 -63.6084 498891.1297 2.3907 2.7846
ENERGY: 25000 1606.1094 2344.5021 3229.4870 0.0000 -175932.7627 20063.0241 317.9158 0.0000 30603.4453 -117768.2790 297.5483 -148371.7243 -117724.4414 299.0049 -78.8543 -28.0816 498177.4807 -7.5309 -7.8720
TCL: Setting parameter constraintScaling to 0.3125
TCL: Running for 5000 steps
ETITLE: TS BOND ANGLE DIHED IMPRP ELECT VDW BOUNDARY MISC KINETIC TOTAL TEMP POTENTIAL TOTAL3 TEMPAVG PRESSURE GPRESSURE VOLUME PRESSAVG GPRESSAVG
ENERGY: 25000 1606.1094 2344.5021 3229.4870 0.0000 -175932.7627 20063.0241 158.9579 0.0000 30601.3767 -117929.3055 297.5282 -148530.6822 -117881.1788 297.5282 -115.0939 -62.1068 498177.4807 -115.0939 -62.1068
ENERGY: 26000 1629.9432 2342.9999 3187.8760 0.0000 -175711.3878 19946.4995 235.9150 0.0000 30835.5513 -117532.6029 299.8050 -148368.1542 -117495.3620 299.0681 136.4170 18.1301 499036.1394 1.4808 1.2520
ENERGY: 27000 1562.4439 2432.8861 3234.9677 0.0000 -175906.9842 20022.2171 248.5939 0.0000 30808.4036 -117597.4720 299.5410 -148405.8755 -117555.0035 298.8817 -56.5644 6.1717 497777.2890 3.6281 3.5180
ENERGY: 28000 1658.5600 2327.7094 3197.3065 0.0000 -175570.5383 19966.7756 243.8006 0.0000 30633.0861 -117543.3001 297.8365 -148176.3862 -117506.4598 299.0315 6.2007 -23.3304 498579.4215 3.7989 3.5852
ENERGY: 29000 1656.3833 2356.0695 3223.1650 0.0000 -175472.4650 19845.5277 256.9036 0.0000 31047.9227 -117086.4931 301.8698 -148134.4159 -117040.4834 300.5836 -100.9598 -36.5154 497940.9787 -1.8266 -1.7183
ENERGY: 30000 1612.7791 2367.3192 3223.3248 0.0000 -175447.1370 19912.9021 248.0078 0.0000 30890.9472 -117191.8569 300.3436 -148082.8041 -117136.8660 300.8918 28.1933 17.1317 497567.6620 -10.8000 -10.6577
TCL: Setting parameter constraintScaling to 0.15625
TCL: Running for 5000 steps
ETITLE: TS BOND ANGLE DIHED IMPRP ELECT VDW BOUNDARY MISC KINETIC TOTAL TEMP POTENTIAL TOTAL3 TEMPAVG PRESSURE GPRESSURE VOLUME PRESSAVG GPRESSAVG
ENERGY: 30000 1612.7791 2367.3192 3223.3248 0.0000 -175447.1370 19912.9021 124.0039 0.0000 30888.9252 -117317.8828 300.3239 -148206.8080 -117274.1706 300.3239 -1.3914 -16.1570 497567.6620 -1.3914 -16.1570
ENERGY: 31000 1588.6571 2421.0643 3202.6566 0.0000 -175597.5907 20058.5630 184.2343 0.0000 30869.3035 -117273.1120 300.1331 -148142.4154 -117224.9575 300.3524 -53.5337 -20.8678 497503.5840 -2.6604 -3.3023
ENERGY: 32000 1615.9568 2358.8926 3175.0014 0.0000 -175788.2396 20056.4468 208.4006 0.0000 30866.3553 -117507.1861 300.1045 -148373.5414 -117460.3776 299.9808 -81.6338 -30.1888 498678.4840 16.0533 16.2519
ENERGY: 33000 1619.4914 2348.0600 3210.5448 0.0000 -175837.1222 20244.8371 194.8231 0.0000 30794.6046 -117424.7612 299.4068 -148219.3658 -117376.9578 299.9372 -54.9903 41.7845 498269.9291 -8.2456 -8.8222
ENERGY: 34000 1636.6075 2460.3622 3214.9317 0.0000 -175796.3636 20014.2694 197.5189 0.0000 30826.3797 -117446.2944 299.7158 -148272.6741 -117401.6915 300.2069 22.5247 -0.8003 497834.6322 3.4429 2.7876
ENERGY: 35000 1702.1949 2438.5391 3240.2280 0.0000 -176003.3605 20123.3310 220.1417 0.0000 30712.9211 -117566.0046 298.6127 -148278.9257 -117523.3350 299.2167 -109.9018 -101.6467 496870.7046 -6.3836 -5.9617
TCL: Setting parameter constraintScaling to 0.078125
TCL: Running for 5000 steps
ETITLE: TS BOND ANGLE DIHED IMPRP ELECT VDW BOUNDARY MISC KINETIC TOTAL TEMP POTENTIAL TOTAL3 TEMPAVG PRESSURE GPRESSURE VOLUME PRESSAVG GPRESSAVG
ENERGY: 35000 1702.1949 2438.5391 3240.2280 0.0000 -176003.3605 20123.3310 110.0709 0.0000 30710.8664 -117678.1302 298.5927 -148388.9966 -117638.0022 298.5927 -121.8858 -113.1097 496870.7046 -121.8858 -113.1097
ENERGY: 36000 1696.8402 2427.4563 3234.3101 0.0000 -175956.6557 20162.1175 147.1064 0.0000 30801.4268 -117487.3985 299.4732 -148288.8253 -117443.7842 300.4846 -47.6938 9.4629 497606.9751 4.0217 3.2162
ENERGY: 37000 1657.9788 2488.3422 3201.1829 0.0000 -176240.8704 20165.9997 148.4690 0.0000 30784.3264 -117794.5715 299.3069 -148578.8978 -117760.4744 299.2138 -114.5753 -25.9763 497322.8700 2.7638 2.4945
ENERGY: 38000 1661.7747 2407.1931 3229.1397 0.0000 -176570.6271 20306.9597 155.2581 0.0000 30913.3569 -117896.9450 300.5614 -148810.3019 -117852.1817 299.8596 5.2524 60.6916 496230.0175 -0.6393 -0.2780
ENERGY: 39000 1680.0388 2412.0924 3236.1605 0.0000 -176763.3635 20404.1787 149.6137 0.0000 30749.7556 -118131.5238 298.9708 -148881.2794 -118095.1141 298.8433 68.0070 70.0383 496063.0296 0.9969 1.1341
ENERGY: 40000 1620.5017 2423.5121 3214.0208 0.0000 -175908.3100 19931.9042 152.5680 0.0000 30970.0085 -117595.7948 301.1122 -148565.8033 -117554.9353 299.1470 -34.6350 -64.6290 496011.4322 3.2498 3.9983
TCL: Setting parameter constraintScaling to 0.0390625
TCL: Running for 5000 steps
ETITLE: TS BOND ANGLE DIHED IMPRP ELECT VDW BOUNDARY MISC KINETIC TOTAL TEMP POTENTIAL TOTAL3 TEMPAVG PRESSURE GPRESSURE VOLUME PRESSAVG GPRESSAVG
ENERGY: 40000 1620.5017 2423.5121 3214.0208 0.0000 -175908.3100 19931.9042 76.2840 0.0000 30967.9769 -117674.1104 301.0925 -148642.0873 -117630.8432 301.0925 -44.7492 -71.4547 496011.4322 -44.7492 -71.4547
ENERGY: 41000 1641.4429 2430.7656 3207.1743 0.0000 -175564.5951 19971.6162 97.4768 0.0000 30862.7448 -117353.3745 300.0694 -148216.1193 -117304.1868 300.0685 -40.2879 28.9769 496499.8955 2.7214 2.6907
ENERGY: 42000 1679.8809 2399.1427 3204.7946 0.0000 -175686.7133 19987.0212 107.2483 0.0000 30905.5582 -117403.0675 300.4856 -148308.6257 -117361.0023 299.6333 12.9757 19.9724 498180.5411 7.9815 8.3752
ENERGY: 43000 1589.8841 2399.8473 3192.6500 0.0000 -175930.4337 20128.9216 107.7809 0.0000 30842.7966 -117668.5534 299.8754 -148511.3500 -117627.4753 299.5961 70.4153 47.7814 497344.2894 -2.2735 -2.6624
ENERGY: 44000 1650.5991 2376.2828 3263.4719 0.0000 -175658.9566 20081.8115 120.9583 0.0000 30870.7457 -117295.0873 300.1471 -148165.8329 -117251.4152 300.4926 8.2298 42.8281 497303.4113 -2.4177 -2.5188
ENERGY: 45000 1644.9141 2370.8429 3182.2328 0.0000 -175641.6534 19888.2793 129.6747 0.0000 30932.3826 -117493.3269 300.7464 -148425.7095 -117451.4090 299.6318 -116.1067 -90.1800 497595.8787 7.3635 7.3090
TCL: Setting parameter constraintScaling to 0.01953125
TCL: Running for 5000 steps
ETITLE: TS BOND ANGLE DIHED IMPRP ELECT VDW BOUNDARY MISC KINETIC TOTAL TEMP POTENTIAL TOTAL3 TEMPAVG PRESSURE GPRESSURE VOLUME PRESSAVG GPRESSAVG
ENERGY: 45000 1644.9141 2370.8429 3182.2328 0.0000 -175641.6534 19888.2793 64.8374 0.0000 30930.3400 -117560.2069 300.7266 -148490.5469 -117518.1945 300.7266 -131.0076 -103.4056 497595.8787 -131.0076 -103.4056
ENERGY: 46000 1663.9583 2414.9921 3235.9793 0.0000 -176223.4995 20152.2269 71.3989 0.0000 30636.1611 -118048.7829 297.8663 -148684.9440 -118009.8509 299.1946 -45.7987 -29.9573 496946.9123 -6.4847 -6.8249
ENERGY: 47000 1683.9888 2333.8477 3247.0647 0.0000 -175913.8117 20173.9984 79.8835 0.0000 30652.8276 -117742.2009 298.0284 -148395.0285 -117691.5739 298.8264 54.1900 -4.1367 497348.2068 10.8660 11.3526
ENERGY: 48000 1610.1751 2442.2599 3190.0177 0.0000 -176311.7087 20297.8270 84.5149 0.0000 30827.7966 -117859.1175 299.7296 -148686.9142 -117801.8241 299.3698 5.7085 18.9714 497480.8776 1.3534 1.6890
ENERGY: 49000 1643.0850 2418.9375 3251.1342 0.0000 -175977.0676 19967.8931 84.6801 0.0000 30950.6110 -117660.7268 300.9237 -148611.3378 -117623.4253 299.8248 10.5938 -11.2094 496862.5563 -1.5134 -1.3118
ENERGY: 50000 1608.9014 2461.4924 3193.3140 0.0000 -176447.2032 20286.8425 93.8129 0.0000 30721.3352 -118081.5048 298.6945 -148802.8400 -118031.2210 299.1251 -5.4219 46.7537 495341.2869 -15.0312 -14.7741
TCL: Setting parameter constraintScaling to 0
TCL: Running for 5000 steps
ETITLE: TS BOND ANGLE DIHED IMPRP ELECT VDW BOUNDARY MISC KINETIC TOTAL TEMP POTENTIAL TOTAL3 TEMPAVG PRESSURE GPRESSURE VOLUME PRESSAVG GPRESSAVG
ENERGY: 50000 1608.9014 2461.4924 3193.3140 0.0000 -176447.2032 20286.8425 0.0000 0.0000 30719.2912 -118177.3617 298.6746 -148896.6530 -118135.8420 298.6746 6.7441 56.0869 495341.2869 6.7441 56.0869
ENERGY: 51000 1612.5198 2507.7001 3225.9448 0.0000 -176290.7318 20224.6456 0.0000 0.0000 30693.1145 -118026.8070 298.4201 -148719.9215 -117981.9262 298.7098 3.0306 -26.2280 495853.6710 -3.1662 -3.1551
ENERGY: 52000 1679.2451 2414.5137 3227.8784 0.0000 -176313.1128 20390.4488 0.0000 0.0000 30601.4056 -117999.6212 297.5284 -148601.0268 -117949.8036 299.0469 -36.9546 3.8104 497038.6688 1.4705 1.7386
ENERGY: 53000 1676.1584 2408.3724 3220.9481 0.0000 -176182.1827 20145.9813 0.0000 0.0000 30866.4812 -117864.2413 300.1057 -148730.7225 -117813.8501 299.5596 20.9330 22.7359 496359.3173 2.2796 2.3759
ENERGY: 54000 1698.1070 2467.2672 3227.3197 0.0000 -176120.0598 20089.7771 0.0000 0.0000 30562.2778 -118075.3111 297.1480 -148637.5888 -118026.2013 298.9893 -99.7497 -9.6517 495654.4199 1.2076 0.4426
ENERGY: 55000 1663.4924 2401.6357 3180.7048 0.0000 -176196.9953 20089.1370 0.0000 0.0000 30545.6944 -118316.3312 296.9868 -148862.0255 -118270.6246 298.1109 -69.4896 -43.6046 495102.2033 -3.7225 -3.5115
