Info: SIMULATION PARAMETERS:
Info: TIMESTEP               1
Info: NUMBER OF STEPS        0
Info: STEPS PER CYCLE        10
Info: PERIODIC CELL BASIS 1  72.449 0 0
Info: PERIODIC CELL BASIS 2  0 93.247 0
Info: PERIODIC CELL BASIS 3  0 0 79.185
Info: PERIODIC CELL CENTER   -0.248 -0.156 -0.047
Info: WRAPPING WATERS AROUND PERIODIC BOUNDARIES ON OUTPUT.
Info: WRAPPING ALL CLUSTERS AROUND PERIODIC BOUNDARIES ON OUTPUT.
Info: FIRST LDB TIMESTEP     50
Info: LAST LDB TIMESTEP     -1
Info: HOM BACKGROUND SCALING 1
Info: PME BACKGROUND SCALING 1
Info: MIN ATOMS PER PATCH    40
Info: VELOCITY FILE          ../replicas/rep36/equilibration/eq1.vel
Info: CENTER OF MASS MOVING INITIALLY? NO
Info: DIELECTRIC             1
Info: EXCLUDE                SCALED ONE-FOUR
Info: 1-4 ELECTROSTATICS SCALED BY 0.833333
Info: MODIFIED 1-4 VDW PARAMETERS WILL BE USED
Info: DCD FILENAME           ../replicas/rep36/equilibration/eq2.dcd
Info: DCD FREQUENCY          5000
Info: DCD FIRST STEP         5000
Info: DCD FILE WILL CONTAIN UNIT CELL DATA
Info: XST FILENAME           ../replicas/rep36/equilibration/eq2.xst
Info: XST FREQUENCY          5000
Info: NO VELOCITY DCD OUTPUT
Info: NO FORCE DCD OUTPUT
Info: OUTPUT FILENAME        ../replicas/rep36/equilibration/eq2
Info: RESTART FILENAME       ../replicas/rep36/equilibration/eq2.restart
Info: RESTART FREQUENCY      5000
Info: BINARY RESTART FILES WILL BE USED
Info: SWITCHING ACTIVE
Info: SWITCHING ON           10
Info: SWITCHING OFF          12
Info: PAIRLIST DISTANCE      13.5
Info: PAIRLIST SHRINK RATE   0.01
Info: PAIRLIST GROW RATE     0.01
Info: PAIRLIST TRIGGER       0.3
Info: PAIRLISTS PER CYCLE    2
Info: PAIRLISTS ENABLED
Info: MARGIN                 0.48
Info: HYDROGEN GROUP CUTOFF  2.5
Info: PATCH DIMENSION        16.48
Info: ENERGY OUTPUT STEPS    500
Info: CROSSTERM ENERGY INCLUDED IN DIHEDRAL
Info: TIMING OUTPUT STEPS    5000
Info: PRESSURE OUTPUT STEPS  500
Info: HARMONIC CONSTRAINTS ACTIVE
Info: HARMONIC CONS EXP      2
Info: HARMONIC CONS SCALING  10
Info: LANGEVIN DYNAMICS ACTIVE
Info: LANGEVIN TEMPERATURE   300
Info: LANGEVIN USING BBK INTEGRATOR
Info: LANGEVIN DAMPING COEFFICIENT IS 5 INVERSE PS
Info: LANGEVIN DYNAMICS NOT APPLIED TO HYDROGENS
Info: BERENDSEN PRESSURE COUPLING ACTIVE
Info:     TARGET PRESSURE IS 1 BAR
Info:     COMPRESSIBILITY ESTIMATE IS 4.57e-05 BAR^(-1)
Info:     RELAXATION TIME IS 100 FS
Info:     APPLIED EVERY 2 STEPS
Info:     PRESSURE CONTROL IS GROUP-BASED
Info:       CELL FLUCTUATION IS ISOTROPIC
Info: PARTICLE MESH EWALD (PME) ACTIVE
Info: PME TOLERANCE               1e-06
Info: PME EWALD COEFFICIENT       0.257952
Info: PME INTERPOLATION ORDER     4
Info: PME GRID DIMENSIONS         80 96 80
Info: PME MAXIMUM GRID SPACING    1
Info: FULL ELECTROSTATIC EVALUATION FREQUENCY      2
Info: USING VERLET I (r-RESPA) MTS SCHEME.
Info: C1 SPLITTING OF LONG RANGE ELECTROSTATICS
Info: PLACING ATOMS IN PATCHES BY HYDROGEN GROUPS
Info: RIGID BONDS TO HYDROGEN : WATER
Info:         ERROR TOLERANCE : 1e-05
Info:          MAX ITERATIONS : 100
Info: RIGID WATER USING SETTLE ALGORITHM
Info: RANDOM NUMBER SEED     1503716454
Info: USE HYDROGEN BONDS?    NO
Info: Using AMBER format force field!
Info: AMBER PARM FILE        ../build/complex.top
Info: COORDINATE PDB         ../replicas/rep36/equilibration/eq1.coor
Info: Exclusions in PARM file will be ignored!
Info: SCNB (VDW SCALING)     2
Info: USING ARITHMETIC MEAN TO COMBINE L-J SIGMA PARAMETERS
Info: SUMMARY OF PARAMETERS:
Info: 71 BONDS
Info: 145 ANGLES
Info: 76 DIHEDRAL
Info: 0 IMPROPER
Info: 0 CROSSTERM
Info: 0 VDW
Info: 190 VDW_PAIRS
Info: 0 NBTHOLE_PAIRS
Info: STRUCTURE SUMMARY:
Info: 49394 ATOMS
Info: 49448 BONDS
Info: 8698 ANGLES
Info: 18780 DIHEDRALS
Info: 0 IMPROPERS
Info: 0 CROSSTERMS
Info: 0 EXCLUSIONS
Info: 2336 CONSTRAINTS
Info: 44667 RIGID BONDS
Info: 103515 DEGREES OF FREEDOM
Info: 17225 HYDROGEN GROUPS
Info: 4 ATOMS IN LARGEST HYDROGEN GROUP
Info: 17225 MIGRATION GROUPS
Info: 4 ATOMS IN LARGEST MIGRATION GROUP
Info: TOTAL MASS = 301478 amu
Info: TOTAL CHARGE = 1.00115e-05 e
Info: MASS DENSITY = 0.935846 g/cm^3
Info: ATOM DENSITY = 0.0923345 atoms/A^3
Info: ADDED 70656 IMPLICIT EXCLUSIONS
Info: NONBONDED TABLE R-SQUARED SPACING: 0.0625
Info: NONBONDED TABLE SIZE: 769 POINTS
Info: REMOVING COM VELOCITY 0.0143073 0.0228145 0.0203939
TCL: Running for 5000 steps
ETITLE: TS BOND ANGLE DIHED IMPRP ELECT VDW BOUNDARY MISC KINETIC TOTAL TEMP POTENTIAL TOTAL3 TEMPAVG PRESSURE GPRESSURE VOLUME PRESSAVG GPRESSAVG
ENERGY: 0 388.6987 1220.8975 2911.4692 0.0000 -212912.8355 29649.1162 0.0000 0.0000 10033.7962 -168708.8577 97.5556 -178742.6539 -168699.2244 97.5556 -2360.3736 -2458.8859 534946.2959 -2360.3736 -2458.8859
ENERGY: 1000 1241.5525 1979.1554 3103.1318 0.0000 -193612.4523 26373.3491 778.6207 0.0000 23983.2740 -136153.3688 233.1823 -160136.6428 -136124.2236 218.5352 -33.3618 -14.6567 522201.4843 -21.2444 -21.5640
ENERGY: 2000 1465.6884 2171.0726 3148.4979 0.0000 -184392.4869 23457.8197 838.8551 0.0000 27957.5055 -125353.0477 271.8226 -153310.5532 -125308.9567 264.6527 -10.2716 13.5103 517165.6306 -20.1514 -20.5486
ENERGY: 3000 1531.4697 2199.3594 3150.1443 0.0000 -179172.7239 21681.7372 833.5642 0.0000 29330.3647 -120446.0844 285.1705 -149776.4491 -120412.4208 284.8360 -109.0000 -7.1855 512765.5522 -10.1911 -10.0908
ENERGY: 4000 1564.4889 2267.6269 3123.8598 0.0000 -176844.4117 20610.1562 823.6568 0.0000 30196.7415 -118257.8815 293.5940 -148454.6230 -118219.4465 292.4077 -43.2238 -10.5543 507753.1232 -17.8101 -18.0763
ENERGY: 5000 1591.5459 2265.0187 3100.2563 0.0000 -176281.1590 20539.6674 797.4340 0.0000 30721.0695 -117266.1672 298.6919 -147987.2367 -117219.2321 296.7303 22.2412 32.7839 505742.2248 -9.3500 -9.3685
TCL: Setting parameter constraintScaling to 5.0
TCL: Running for 5000 steps
ETITLE: TS BOND ANGLE DIHED IMPRP ELECT VDW BOUNDARY MISC KINETIC TOTAL TEMP POTENTIAL TOTAL3 TEMPAVG PRESSURE GPRESSURE VOLUME PRESSAVG GPRESSAVG
ENERGY: 5000 1591.5459 2265.0187 3100.2563 0.0000 -176281.1590 20539.6674 398.7170 0.0000 30719.0163 -117666.9374 298.6719 -148385.9537 -117623.0286 298.6719 -7.8370 0.6876 505742.2248 -7.8370 0.6876
ENERGY: 6000 1589.6331 2354.8862 3160.6210 0.0000 -175773.0782 20269.8008 666.9392 0.0000 30760.7333 -116970.4646 299.0775 -147731.1980 -116933.3478 297.4818 -129.3822 -39.4569 502722.6784 -11.8622 -11.7853
ENERGY: 7000 1604.8490 2256.4967 3144.0255 0.0000 -175245.7007 20091.3962 638.9465 0.0000 30732.9922 -116776.9945 298.8078 -147509.9868 -116722.9953 299.5888 24.5099 20.4888 502503.3342 8.3337 8.3748
ENERGY: 8000 1560.2571 2335.1714 3179.4069 0.0000 -175376.3233 20227.5245 628.3886 0.0000 30701.9166 -116743.6581 298.5057 -147445.5748 -116695.3008 299.8171 -142.1489 -23.0951 503122.0886 -8.1519 -7.4355
ENERGY: 9000 1554.5693 2262.6775 3160.0944 0.0000 -175072.5789 20073.9974 634.9748 0.0000 30839.0617 -116547.2038 299.8391 -147386.2655 -116508.7514 299.8821 14.8217 42.6132 502569.9367 -2.8069 -2.4293
ENERGY: 10000 1586.7408 2316.1292 3167.1332 0.0000 -175323.1990 20024.6393 649.2201 0.0000 30908.2690 -116671.0674 300.5120 -147579.3363 -116616.0693 300.0012 -14.2666 -3.6541 502169.2610 6.7313 6.7896
TCL: Setting parameter constraintScaling to 2.5
TCL: Running for 5000 steps
ETITLE: TS BOND ANGLE DIHED IMPRP ELECT VDW BOUNDARY MISC KINETIC TOTAL TEMP POTENTIAL TOTAL3 TEMPAVG PRESSURE GPRESSURE VOLUME PRESSAVG GPRESSAVG
ENERGY: 10000 1586.7408 2316.1292 3167.1332 0.0000 -175323.1990 20024.6393 324.6100 0.0000 30906.2488 -116997.6976 300.4923 -147903.9464 -116954.7446 300.4923 -56.0963 -48.5485 502169.2610 -56.0963 -48.5485
ENERGY: 11000 1591.9597 2366.6103 3178.4862 0.0000 -175556.8165 20175.4890 511.3476 0.0000 30903.9193 -116829.0044 300.4697 -147732.9237 -116779.7204 299.8450 -140.1375 14.6950 500786.1283 11.4799 11.8219
ENERGY: 12000 1633.7139 2352.1424 3162.0187 0.0000 -175416.2605 19978.0523 508.8682 0.0000 30953.3246 -116828.1404 300.9500 -147781.4649 -116781.7118 299.7355 -79.1447 -50.5663 500111.7253 -1.0408 -1.2039
ENERGY: 13000 1663.0631 2341.8490 3168.9297 0.0000 -175573.2191 20118.9664 516.2232 0.0000 31266.0704 -116498.1174 303.9908 -147764.1878 -116451.6651 301.3893 16.5724 -19.3043 500313.1381 1.5684 1.6086
ENERGY: 14000 1638.2356 2344.2718 3205.1551 0.0000 -175458.8619 20014.9864 519.7552 0.0000 30781.5781 -116954.8796 299.2802 -147736.4578 -116905.3176 300.1027 -63.2681 36.8374 501305.5374 7.6469 8.0619
ENERGY: 15000 1610.5029 2350.4992 3204.2304 0.0000 -175338.9030 19857.1690 531.5841 0.0000 30910.1281 -116874.7893 300.5300 -147784.9173 -116825.5848 299.8498 -56.8559 36.2648 500476.1081 2.0799 2.7700
TCL: Setting parameter constraintScaling to 1.25
TCL: Running for 5000 steps
ETITLE: TS BOND ANGLE DIHED IMPRP ELECT VDW BOUNDARY MISC KINETIC TOTAL TEMP POTENTIAL TOTAL3 TEMPAVG PRESSURE GPRESSURE VOLUME PRESSAVG GPRESSAVG
ENERGY: 15000 1610.5029 2350.4992 3204.2304 0.0000 -175338.9030 19857.1690 265.7921 0.0000 30908.0863 -117142.6231 300.5102 -148050.7094 -117099.8769 300.5102 -137.5329 -46.5032 500476.1081 -137.5329 -46.5032
ENERGY: 16000 1594.9642 2366.5529 3183.8116 0.0000 -175356.2200 20096.6207 420.9827 0.0000 30957.9601 -116735.3278 300.9951 -147693.2879 -116692.0911 300.3386 3.1592 17.5162 500912.8938 13.3186 13.2851
ENERGY: 17000 1595.8367 2351.1069 3190.6687 0.0000 -175565.5753 19952.7203 392.1549 0.0000 30855.6563 -117227.4314 300.0004 -148083.0877 -117174.8061 300.1932 -8.3778 -34.0566 499418.7991 -6.9002 -6.4010
ENERGY: 18000 1595.7484 2319.0445 3222.3846 0.0000 -175404.1271 20024.3954 402.5804 0.0000 30996.6691 -116843.3048 301.3715 -147839.9739 -116789.8880 301.1387 -47.2386 -62.5962 498762.8465 8.9587 8.3872
ENERGY: 19000 1652.4609 2367.2088 3209.6882 0.0000 -175829.3364 20113.1223 385.2653 0.0000 30730.7822 -117370.8087 298.7863 -148101.5909 -117319.7967 300.4731 -59.5048 -54.3068 497556.5167 1.0746 1.1379
ENERGY: 20000 1570.5423 2315.5607 3175.3266 0.0000 -176084.2803 20279.1578 396.4444 0.0000 30704.0263 -117643.2222 298.5262 -148347.2486 -117595.2796 298.4585 -118.8487 -58.0484 498653.8772 7.1466 7.4608
TCL: Setting parameter constraintScaling to 0.625
TCL: Running for 5000 steps
ETITLE: TS BOND ANGLE DIHED IMPRP ELECT VDW BOUNDARY MISC KINETIC TOTAL TEMP POTENTIAL TOTAL3 TEMPAVG PRESSURE GPRESSURE VOLUME PRESSAVG GPRESSAVG
ENERGY: 20000 1570.5423 2315.5607 3175.3266 0.0000 -176084.2803 20279.1578 198.2222 0.0000 30701.9605 -117843.5103 298.5061 -148545.4707 -117798.7208 298.5061 -153.4044 -87.8920 498653.8772 -153.4044 -87.8920
ENERGY: 21000 1535.9344 2435.3899 3208.4345 0.0000 -176264.8789 20163.2368 319.5854 0.0000 30753.8339 -117848.4640 299.0104 -148602.2980 -117801.1982 297.7882 1.9150 30.7297 500068.5501 15.8330 15.1037
ENERGY: 22000 1669.5490 2420.0674 3228.0286 0.0000 -176025.0085 20145.7605 313.0484 0.0000 30705.9330 -117542.6216 298.5447 -148248.5547 -117501.3244 299.0419 -68.2662 -10.8637 498254.1746 -7.0813 -7.0932
ENERGY: 23000 1595.5003 2323.7669 3196.4925 0.0000 -175751.2499 20001.6626 330.8814 0.0000 30710.8669 -117592.0792 298.5927 -148302.9461 -117542.6105 299.1321 -34.8594 35.8623 497626.1422 6.8372 6.7217
ENERGY: 24000 1568.5749 2378.4226 3199.9833 0.0000 -175546.0261 19911.2939 324.1394 0.0000 30874.1775 -117289.4346 300.1805 -148163.6121 -117239.7003 299.4892 -45.2323 -43.5409 497394.4069 0.6662 1.1643
ENERGY: 25000 1595.4672 2378.7059 3236.5872 0.0000 -175788.6075 19916.3346 327.9661 0.0000 30808.9917 -117524.5548 299.5467 -148333.5465 -117472.6273 299.9754 -49.8525 -63.2023 497381.4654 -2.0667 -2.4909
TCL: Setting parameter constraintScaling to 0.3125
TCL: Running for 5000 steps
ETITLE: TS BOND ANGLE DIHED IMPRP ELECT VDW BOUNDARY MISC KINETIC TOTAL TEMP POTENTIAL TOTAL3 TEMPAVG PRESSURE GPRESSURE VOLUME PRESSAVG GPRESSAVG
ENERGY: 25000 1595.4672 2378.7059 3236.5872 0.0000 -175788.6075 19916.3346 163.9830 0.0000 30806.9192 -117690.6104 299.5266 -148497.5296 -117643.9641 299.5266 -103.6988 -120.0540 497381.4654 -103.6988 -120.0540
ENERGY: 26000 1582.3097 2463.8684 3244.2338 0.0000 -176148.8748 20376.8807 249.8210 0.0000 30929.1077 -117302.6535 300.7146 -148231.7612 -117260.3645 300.0737 -116.3908 -7.5358 498661.0037 11.5266 11.9660
ENERGY: 27000 1684.1954 2389.9033 3243.5036 0.0000 -175970.1522 20321.9707 250.7361 0.0000 30545.9582 -117533.8850 296.9893 -148079.8431 -117495.5081 299.6885 136.7523 158.3179 498003.9064 -4.7874 -4.7624
ENERGY: 28000 1624.7704 2327.7854 3210.7804 0.0000 -175649.4500 19995.2743 258.6312 0.0000 30761.7355 -117470.4728 299.0873 -148232.2083 -117419.4680 299.0510 -46.8486 0.5398 497777.1209 1.2761 1.1326
ENERGY: 29000 1612.0833 2412.2701 3239.2570 0.0000 -175491.2761 19954.6057 263.4377 0.0000 30739.1102 -117270.5122 298.8673 -148009.6224 -117223.2655 299.8390 -62.7291 27.0298 498228.1217 7.6256 7.5931
ENERGY: 30000 1639.9351 2442.9379 3204.5509 0.0000 -176099.1237 20205.2314 239.9577 0.0000 30980.5967 -117385.9139 301.2152 -148366.5106 -117331.0884 299.9780 -93.3566 25.0340 499226.6403 12.8696 12.6263
TCL: Setting parameter constraintScaling to 0.15625
TCL: Running for 5000 steps
ETITLE: TS BOND ANGLE DIHED IMPRP ELECT VDW BOUNDARY MISC KINETIC TOTAL TEMP POTENTIAL TOTAL3 TEMPAVG PRESSURE GPRESSURE VOLUME PRESSAVG GPRESSAVG
ENERGY: 30000 1639.9351 2442.9379 3204.5509 0.0000 -176099.1237 20205.2314 119.9788 0.0000 30978.5307 -117507.9587 301.1951 -148486.4894 -117465.3773 301.1951 -120.5594 -8.5952 499226.6403 -120.5594 -8.5952
ENERGY: 31000 1670.7259 2434.0807 3227.6561 0.0000 -175682.3371 19884.2168 189.2248 0.0000 30824.8125 -117451.6203 299.7006 -148276.4328 -117404.5587 299.0321 -110.2615 -5.1684 497486.9689 -16.2249 -16.1316
ENERGY: 32000 1574.9918 2406.3002 3190.3232 0.0000 -175469.6421 20089.1146 203.2973 0.0000 30981.4413 -117024.1737 301.2234 -148005.6150 -116979.7030 299.6859 -36.2086 -39.2654 499661.0822 11.5077 11.7730
ENERGY: 33000 1680.6713 2392.5008 3224.9191 0.0000 -175635.9935 20169.7641 195.2854 0.0000 31069.9913 -116902.8615 302.0844 -147972.8528 -116853.7008 300.2650 -18.9036 75.2342 498223.9109 -3.2804 -3.3191
ENERGY: 34000 1580.6285 2398.7718 3230.0018 0.0000 -175634.9500 19896.0643 195.9449 0.0000 31177.8298 -117155.7089 303.1328 -148333.5387 -117108.0345 300.4871 -11.1777 14.9266 498397.8547 -0.4232 -0.6406
ENERGY: 35000 1590.9509 2409.1439 3195.3018 0.0000 -175443.3685 20051.7687 214.4239 0.0000 30719.2469 -117262.5324 298.6742 -147981.7793 -117223.8368 300.7621 156.5220 168.9840 497958.6023 -13.0464 -13.2348
TCL: Setting parameter constraintScaling to 0.078125
TCL: Running for 5000 steps
ETITLE: TS BOND ANGLE DIHED IMPRP ELECT VDW BOUNDARY MISC KINETIC TOTAL TEMP POTENTIAL TOTAL3 TEMPAVG PRESSURE GPRESSURE VOLUME PRESSAVG GPRESSAVG
ENERGY: 35000 1590.9509 2409.1439 3195.3018 0.0000 -175443.3685 20051.7687 107.2120 0.0000 30717.1975 -117371.7938 298.6542 -148088.9912 -117325.9337 298.6542 132.1746 142.2352 497958.6023 132.1746 142.2352
ENERGY: 36000 1633.9248 2403.1216 3213.5955 0.0000 -175849.1409 20130.7639 158.3283 0.0000 31044.9660 -117264.4409 301.8410 -148309.4068 -117221.8982 299.6700 8.4676 30.0322 498842.1226 15.7944 15.1172
ENERGY: 37000 1664.5809 2355.8953 3241.2479 0.0000 -175654.6439 20057.6445 164.2045 0.0000 30723.8266 -117447.2443 298.7187 -148171.0709 -117401.8870 299.9267 -107.8090 -15.8711 497486.7074 -2.1804 -2.5456
ENERGY: 38000 1651.4608 2370.4611 3214.1697 0.0000 -175636.7566 19966.5193 153.3428 0.0000 30777.1688 -117503.6341 299.2373 -148280.8029 -117461.8058 299.4889 -52.3294 26.3636 496989.4135 -4.9936 -4.9262
ENERGY: 39000 1616.2657 2399.5243 3200.2444 0.0000 -176042.9341 20156.3070 154.3923 0.0000 31004.7715 -117511.4290 301.4502 -148516.2004 -117464.5489 299.5178 0.6394 48.7489 496491.9501 -4.0135 -3.8390
ENERGY: 40000 1640.2051 2397.0599 3230.4102 0.0000 -175930.8664 19892.6760 162.0394 0.0000 30860.6167 -117747.8591 300.0487 -148608.4758 -117697.5755 299.5036 -49.7764 -46.1534 497055.9439 4.4114 4.2324
TCL: Setting parameter constraintScaling to 0.0390625
TCL: Running for 5000 steps
ETITLE: TS BOND ANGLE DIHED IMPRP ELECT VDW BOUNDARY MISC KINETIC TOTAL TEMP POTENTIAL TOTAL3 TEMPAVG PRESSURE GPRESSURE VOLUME PRESSAVG GPRESSAVG
ENERGY: 40000 1640.2051 2397.0599 3230.4102 0.0000 -175930.8663 19892.6760 81.0197 0.0000 30858.5692 -117830.9263 300.0288 -148689.4955 -117785.7103 300.0288 -71.5344 -70.3685 497055.9439 -71.5344 -70.3685
ENERGY: 41000 1627.8744 2465.5327 3207.4236 0.0000 -175713.2099 20040.9335 112.4915 0.0000 30690.9068 -117568.0474 298.3986 -148258.9542 -117523.0559 298.5242 -98.8204 -0.4181 496936.7882 -9.4118 -9.1770
ENERGY: 42000 1631.2930 2375.8805 3235.8076 0.0000 -175752.6754 19913.5629 118.7737 0.0000 30813.5269 -117663.8309 299.5908 -148477.3578 -117611.7967 298.6067 -105.1946 23.1547 496290.5986 6.1689 6.7165
ENERGY: 43000 1612.3978 2333.9170 3222.5029 0.0000 -175364.7099 19726.7937 123.4325 0.0000 30684.5335 -117661.1324 298.3367 -148345.6660 -117614.2572 299.8605 28.4221 33.1403 496216.4846 5.6883 5.3103
ENERGY: 44000 1673.4696 2371.8282 3237.7627 0.0000 -175889.4362 20117.2104 122.7711 0.0000 30791.8798 -117574.5144 299.3804 -148366.3942 -117520.1770 299.1145 -10.0002 73.5011 497363.9190 -0.3985 -0.6376
ENERGY: 45000 1664.9609 2333.5929 3212.4035 0.0000 -175781.7879 20042.3142 128.0419 0.0000 30960.9930 -117439.4814 301.0246 -148400.4744 -117399.0691 300.8239 -82.0663 -51.7062 498438.8630 3.4633 3.4280
TCL: Setting parameter constraintScaling to 0.01953125
TCL: Running for 5000 steps
ETITLE: TS BOND ANGLE DIHED IMPRP ELECT VDW BOUNDARY MISC KINETIC TOTAL TEMP POTENTIAL TOTAL3 TEMPAVG PRESSURE GPRESSURE VOLUME PRESSAVG GPRESSAVG
ENERGY: 45000 1664.9609 2333.5929 3212.4035 0.0000 -175781.7879 20042.3142 64.0210 0.0000 30958.9339 -117505.5614 301.0046 -148464.4954 -117461.8347 301.0046 -112.0179 -78.6132 498438.8630 -112.0179 -78.6132
ENERGY: 46000 1731.5046 2414.1345 3193.9499 0.0000 -176172.4329 20167.4551 82.8935 0.0000 30864.3829 -117718.1125 300.0853 -148582.4954 -117684.2307 299.6214 -87.7523 35.3546 497848.6709 -3.6579 -3.1214
ENERGY: 47000 1679.4199 2431.5025 3225.8437 0.0000 -176132.0989 20010.1379 86.6140 0.0000 30907.5392 -117791.0417 300.5049 -148698.5809 -117736.1168 299.7639 19.9424 -50.9726 496955.1874 1.1585 0.8775
ENERGY: 48000 1653.4324 2345.2307 3199.1427 0.0000 -176203.5511 20074.1203 77.8123 0.0000 30785.7526 -118068.0602 299.3208 -148853.8128 -118020.8999 298.6917 -5.7055 18.1682 495526.9537 -4.7810 -5.1188
ENERGY: 49000 1686.9873 2423.0802 3159.4156 0.0000 -176350.0920 20193.1490 85.1359 0.0000 30899.0466 -117903.2774 300.4223 -148802.3240 -117861.4419 299.2682 23.4828 40.3716 496562.0369 13.2561 12.9803
ENERGY: 50000 1662.3349 2450.8989 3223.7398 0.0000 -176127.7005 20096.6332 89.4273 0.0000 30745.9480 -117858.7184 298.9338 -148604.6665 -117818.5331 298.9201 -98.1768 -78.8786 498004.9228 7.9981 8.3804
TCL: Setting parameter constraintScaling to 0
TCL: Running for 5000 steps
ETITLE: TS BOND ANGLE DIHED IMPRP ELECT VDW BOUNDARY MISC KINETIC TOTAL TEMP POTENTIAL TOTAL3 TEMPAVG PRESSURE GPRESSURE VOLUME PRESSAVG GPRESSAVG
ENERGY: 50000 1662.3349 2450.8989 3223.7398 0.0000 -176127.7005 20096.6332 0.0000 0.0000 30743.8879 -117950.2058 298.9137 -148694.0937 -117906.2262 298.9137 -107.7619 -95.6589 498004.9228 -107.7619 -95.6589
ENERGY: 51000 1694.0948 2395.3496 3181.0346 0.0000 -176554.4904 20377.2849 0.0000 0.0000 30707.5924 -118199.1341 298.5609 -148906.7265 -118151.0228 298.1385 -123.1204 -23.5722 496540.7734 -4.8095 -3.8735
ENERGY: 52000 1603.5725 2486.6782 3188.2770 0.0000 -176466.1315 20148.6747 0.0000 0.0000 30507.0654 -118531.8636 296.6112 -149038.9290 -118489.7315 298.0980 -78.6385 -103.2642 496156.7537 -8.2775 -8.6729
ENERGY: 53000 1661.3804 2456.0920 3191.0413 0.0000 -176471.5551 20209.8989 0.0000 0.0000 30660.3064 -118292.8362 298.1011 -148953.1426 -118236.9719 298.1048 -110.0512 -16.0663 496072.7991 4.4074 4.2528
ENERGY: 54000 1575.8759 2401.6214 3191.6888 0.0000 -176385.1906 19997.9012 0.0000 0.0000 30763.2203 -118454.8830 299.1017 -149218.1033 -118408.9484 298.1454 -90.0398 -49.6003 496620.2562 -1.9047 -2.1404
ENERGY: 55000 1644.5763 2357.4888 3170.7664 0.0000 -176148.8269 20256.7301 0.0000 0.0000 30892.0709 -117827.1944 300.3545 -148719.2653 -117773.5247 299.3229 1.5468 58.7137 497018.1943 6.4246 5.8389
