Info: SIMULATION PARAMETERS:
Info: TIMESTEP               2
Info: NUMBER OF STEPS        0
Info: STEPS PER CYCLE        10
Info: PERIODIC CELL BASIS 1  72.449 0 0
Info: PERIODIC CELL BASIS 2  0 93.247 0
Info: PERIODIC CELL BASIS 3  0 0 79.185
Info: PERIODIC CELL CENTER   -0.248 -0.156 -0.047
Info: WRAPPING WATERS AROUND PERIODIC BOUNDARIES ON OUTPUT.
Info: WRAPPING ALL CLUSTERS AROUND PERIODIC BOUNDARIES ON OUTPUT.
Info: FIRST LDB TIMESTEP     50
Info: LAST LDB TIMESTEP     -1
Info: HOM BACKGROUND SCALING 1
Info: PME BACKGROUND SCALING 1
Info: MIN ATOMS PER PATCH    40
Info: INITIAL TEMPERATURE    0
Info: CENTER OF MASS MOVING INITIALLY? NO
Info: DIELECTRIC             1
Info: EXCLUDE                SCALED ONE-FOUR
Info: 1-4 ELECTROSTATICS SCALED BY 0.833333
Info: MODIFIED 1-4 VDW PARAMETERS WILL BE USED
Info: NO DCD TRAJECTORY OUTPUT
Info: NO EXTENDED SYSTEM TRAJECTORY OUTPUT
Info: NO VELOCITY DCD OUTPUT
Info: NO FORCE DCD OUTPUT
Info: OUTPUT FILENAME        ../replicas/rep24/equilibration/eq0
Info: NO RESTART FILE
Info: SWITCHING ACTIVE
Info: SWITCHING ON           10
Info: SWITCHING OFF          12
Info: PAIRLIST DISTANCE      13.5
Info: PAIRLIST SHRINK RATE   0.01
Info: PAIRLIST GROW RATE     0.01
Info: PAIRLIST TRIGGER       0.3
Info: PAIRLISTS PER CYCLE    2
Info: PAIRLISTS ENABLED
Info: MARGIN                 0
Info: HYDROGEN GROUP CUTOFF  2.5
Info: PATCH DIMENSION        16
Info: ENERGY OUTPUT STEPS    500
Info: CROSSTERM ENERGY INCLUDED IN DIHEDRAL
Info: TIMING OUTPUT STEPS    5000
Info: PRESSURE OUTPUT STEPS  500
Info: HARMONIC CONSTRAINTS ACTIVE
Info: HARMONIC CONS EXP      2
Info: HARMONIC CONS SCALING  10
Info: CONJUGATE GRADIENT MINIMIZATION ACTIVE
Info: LINE MINIMIZATION GOAL = 0.001
Info: BABY STEP SIZE = 0.01
Info: TINY STEP SIZE = 1e-06
Info: PARTICLE MESH EWALD (PME) ACTIVE
Info: PME TOLERANCE               1e-06
Info: PME EWALD COEFFICIENT       0.257952
Info: PME INTERPOLATION ORDER     4
Info: PME GRID DIMENSIONS         80 96 80
Info: PME MAXIMUM GRID SPACING    1
Info: FULL ELECTROSTATIC EVALUATION FREQUENCY      2
Info: USING VERLET I (r-RESPA) MTS SCHEME.
Info: C1 SPLITTING OF LONG RANGE ELECTROSTATICS
Info: PLACING ATOMS IN PATCHES BY HYDROGEN GROUPS
Info: RIGID BONDS TO HYDROGEN : ALL
Info:         ERROR TOLERANCE : 1e-05
Info:          MAX ITERATIONS : 100
Info: RIGID WATER USING SETTLE ALGORITHM
Info: RANDOM NUMBER SEED     1503692022
Info: USE HYDROGEN BONDS?    NO
Info: Using AMBER format force field!
Info: AMBER PARM FILE        ../build/complex.top
Info: COORDINATE PDB         ../build/complex.pdb
Info: Exclusions in PARM file will be ignored!
Info: SCNB (VDW SCALING)     2
Info: USING ARITHMETIC MEAN TO COMBINE L-J SIGMA PARAMETERS
Info: SUMMARY OF PARAMETERS:
Info: 71 BONDS
Info: 145 ANGLES
Info: 76 DIHEDRAL
Info: 0 IMPROPER
Info: 0 CROSSTERM
Info: 0 VDW
Info: 190 VDW_PAIRS
Info: 0 NBTHOLE_PAIRS
Info: STRUCTURE SUMMARY:
Info: 49394 ATOMS
Info: 49448 BONDS
Info: 8698 ANGLES
Info: 18780 DIHEDRALS
Info: 0 IMPROPERS
Info: 0 CROSSTERMS
Info: 0 EXCLUSIONS
Info: 2336 CONSTRAINTS
Info: 47058 RIGID BONDS
Info: 101124 DEGREES OF FREEDOM
Info: 17225 HYDROGEN GROUPS
Info: 4 ATOMS IN LARGEST HYDROGEN GROUP
Info: 17225 MIGRATION GROUPS
Info: 4 ATOMS IN LARGEST MIGRATION GROUP
Info: TOTAL MASS = 301478 amu
Info: TOTAL CHARGE = 1.00115e-05 e
Info: MASS DENSITY = 0.935846 g/cm^3
Info: ATOM DENSITY = 0.0923345 atoms/A^3
Info: ADDED 70656 IMPLICIT EXCLUSIONS
Info: NONBONDED TABLE R-SQUARED SPACING: 0.0625
Info: NONBONDED TABLE SIZE: 769 POINTS
Info: REMOVING COM VELOCITY 0 0 0
TCL: Minimizing for 100 steps
ETITLE: TS BOND ANGLE DIHED IMPRP ELECT VDW BOUNDARY MISC KINETIC TOTAL TEMP POTENTIAL TOTAL3 TEMPAVG PRESSURE GPRESSURE VOLUME PRESSAVG GPRESSAVG
ENERGY: 0 155.4176 1012.2698 2855.7272 0.0000 -154496.7913 207729.2052 0.0468 0.0000 0.0000 57255.8753 0.0000 57255.8753 57255.8753 0.0000 116350.2532 86546.1670 534946.2959 116350.2532 86546.1670
ENERGY: 20 304.7543 935.7911 2893.4663 0.0000 -158672.9399 17936.6597 143.9454 0.0000 0.0000 -136458.3232 0.0000 -136458.3232 -136458.3232 0.0000 16523.9390 -239.4554 534946.2959 16523.9390 -239.4554
ENERGY: 40 198.7445 799.5727 2896.9273 0.0000 -162811.4543 16417.9534 221.3030 0.0000 0.0000 -142276.9534 0.0000 -142276.9534 -142276.9534 0.0000 15011.2700 -2135.4702 534946.2959 15011.2700 -2135.4702
ENERGY: 60 130.5282 715.3440 2898.2166 0.0000 -167496.1585 15446.7537 315.2796 0.0000 0.0000 -147990.0364 0.0000 -147990.0364 -147990.0364 0.0000 13793.8833 -3799.3992 534946.2959 13793.8833 -3799.3992
ENERGY: 80 431.2745 765.6309 2904.3786 0.0000 -169937.5350 15121.1517 372.0123 0.0000 0.0000 -150343.0870 0.0000 -150343.0870 -150343.0870 0.0000 13270.3292 -4577.2473 534946.2959 13270.3292 -4577.2473
ENERGY: 100 119.3859 710.0600 2905.2590 0.0000 -171259.7154 14991.7868 387.3613 0.0000 0.0000 -152145.8623 0.0000 -152145.8623 -152145.8623 0.0000 13056.2648 -4908.1733 534946.2959 13056.2648 -4908.1733
TCL: Setting parameter constraintScaling to 5.0
TCL: Minimizing for 100 steps
ETITLE: TS BOND ANGLE DIHED IMPRP ELECT VDW BOUNDARY MISC KINETIC TOTAL TEMP POTENTIAL TOTAL3 TEMPAVG PRESSURE GPRESSURE VOLUME PRESSAVG GPRESSAVG
ENERGY: 100 119.3859 710.0600 2905.2590 0.0000 -171259.7154 14991.7868 193.6806 0.0000 0.0000 -152339.5430 0.0000 -152339.5430 -152339.5430 0.0000 13672.7710 -23021.8192 534946.2959 13672.7710 -23021.8192
ENERGY: 120 108.8812 687.5830 2912.9265 0.0000 -172865.8741 14798.2712 281.1911 0.0000 0.0000 -154077.0211 0.0000 -154077.0211 -154077.0211 0.0000 13218.2572 -4906.0132 534946.2959 13218.2572 -4906.0132
ENERGY: 140 309.3963 708.8596 2913.8026 0.0000 -174236.7698 14731.4763 326.6426 0.0000 0.0000 -155246.5925 0.0000 -155246.5925 -155246.5925 0.0000 12971.5170 -5303.2654 534946.2959 12971.5170 -5303.2654
ENERGY: 160 265.4524 683.1767 2923.1865 0.0000 -176276.5135 14757.4051 382.9338 0.0000 0.0000 -157264.3590 0.0000 -157264.3590 -157264.3590 0.0000 12740.8095 -5742.6516 534946.2959 12740.8095 -5742.6516
ENERGY: 180 268.7537 744.0999 2928.5662 0.0000 -178996.3010 15023.6643 473.3493 0.0000 0.0000 -159557.8675 0.0000 -159557.8675 -159557.8675 0.0000 12521.5584 -6223.4252 534946.2959 12521.5584 -6223.4252
ENERGY: 200 239.0419 694.0728 2941.3720 0.0000 -181556.9559 15587.2120 546.2793 0.0000 0.0000 -161548.9778 0.0000 -161548.9778 -161548.9778 0.0000 12582.6586 -6424.3683 534946.2959 12582.6586 -6424.3683
TCL: Setting parameter constraintScaling to 2.5
TCL: Minimizing for 100 steps
ETITLE: TS BOND ANGLE DIHED IMPRP ELECT VDW BOUNDARY MISC KINETIC TOTAL TEMP POTENTIAL TOTAL3 TEMPAVG PRESSURE GPRESSURE VOLUME PRESSAVG GPRESSAVG
ENERGY: 200 239.0419 694.0728 2941.3720 0.0000 -181556.9559 15587.2120 273.1397 0.0000 0.0000 -161822.1175 0.0000 -161822.1175 -161822.1175 0.0000 13229.5825 -25655.2310 534946.2959 13229.5825 -25655.2310
ENERGY: 220 245.6940 677.0650 2932.9967 0.0000 -182075.0186 15472.4025 337.3385 0.0000 0.0000 -162409.5218 0.0000 -162409.5218 -162409.5218 0.0000 12972.8644 -6088.5339 534946.2959 12972.8644 -6088.5339
ENERGY: 240 154.3046 693.7798 2928.7117 0.0000 -182681.8624 15529.6966 347.0948 0.0000 0.0000 -163028.2749 0.0000 -163028.2749 -163028.2749 0.0000 13033.3051 -6131.6733 534946.2959 13033.3051 -6131.6733
ENERGY: 260 178.4397 683.2923 2920.2116 0.0000 -184291.5784 15886.2970 399.0234 0.0000 0.0000 -164224.3145 0.0000 -164224.3145 -164224.3145 0.0000 13053.8757 -6274.6321 534946.2959 13053.8757 -6274.6321
ENERGY: 280 169.2403 700.8549 2917.5897 0.0000 -185421.7857 16228.2079 454.9360 0.0000 0.0000 -164950.9570 0.0000 -164950.9570 -164950.9570 0.0000 13142.9375 -6338.6609 534946.2959 13142.9375 -6338.6609
ENERGY: 300 126.6814 639.5204 2916.2466 0.0000 -186093.0554 16445.0119 481.3809 0.0000 0.0000 -165484.2140 0.0000 -165484.2140 -165484.2140 0.0000 13207.3321 -6342.6000 534946.2959 13207.3321 -6342.6000
TCL: Setting parameter constraintScaling to 1.25
TCL: Minimizing for 100 steps
ETITLE: TS BOND ANGLE DIHED IMPRP ELECT VDW BOUNDARY MISC KINETIC TOTAL TEMP POTENTIAL TOTAL3 TEMPAVG PRESSURE GPRESSURE VOLUME PRESSAVG GPRESSAVG
ENERGY: 300 126.6814 639.5204 2916.2466 0.0000 -186093.0554 16445.0119 240.6905 0.0000 0.0000 -165724.9045 0.0000 -165724.9045 -165724.9045 0.0000 13655.6737 -26352.4115 534946.2959 13655.6737 -26352.4115
ENERGY: 320 266.1478 657.6375 2911.4742 0.0000 -186854.0958 16633.8913 286.7760 0.0000 0.0000 -166098.1689 0.0000 -166098.1689 -166098.1689 0.0000 13611.2415 -6009.0119 534946.2959 13611.2415 -6009.0119
ENERGY: 340 143.8353 621.0713 2910.1341 0.0000 -187429.5477 16830.0676 296.9040 0.0000 0.0000 -166627.5354 0.0000 -166627.5354 -166627.5354 0.0000 13661.2951 -6005.7714 534946.2959 13661.2951 -6005.7714
ENERGY: 360 127.3336 662.1547 2906.8860 0.0000 -188955.7394 17360.1915 350.7962 0.0000 0.0000 -167548.3774 0.0000 -167548.3774 -167548.3774 0.0000 13909.3148 -5975.6483 534946.2959 13909.3148 -5975.6483
ENERGY: 380 197.5082 647.4240 2900.9776 0.0000 -190444.2019 17950.9069 402.5055 0.0000 0.0000 -168344.8797 0.0000 -168344.8797 -168344.8797 0.0000 14032.3080 -5976.1327 534946.2959 14032.3080 -5976.1327
ENERGY: 400 144.4359 668.1698 2904.6321 0.0000 -191231.2161 18227.6575 414.1085 0.0000 0.0000 -168872.2122 0.0000 -168872.2122 -168872.2122 0.0000 14260.0695 -5880.7004 534946.2959 14260.0695 -5880.7004
TCL: Setting parameter constraintScaling to 0.625
TCL: Minimizing for 100 steps
ETITLE: TS BOND ANGLE DIHED IMPRP ELECT VDW BOUNDARY MISC KINETIC TOTAL TEMP POTENTIAL TOTAL3 TEMPAVG PRESSURE GPRESSURE VOLUME PRESSAVG GPRESSAVG
ENERGY: 400 144.4359 668.1698 2904.6321 0.0000 -191231.2161 18227.6575 207.0543 0.0000 0.0000 -169079.2665 0.0000 -169079.2665 -169079.2665 0.0000 14565.9210 -26647.8333 534946.2959 14565.9210 -26647.8333
ENERGY: 420 145.8192 636.9769 2892.4064 0.0000 -191563.5253 18307.2872 224.0683 0.0000 0.0000 -169356.9674 0.0000 -169356.9674 -169356.9674 0.0000 14523.5846 -5641.2563 534946.2959 14523.5846 -5641.2563
ENERGY: 440 210.8819 642.3073 2889.8787 0.0000 -192394.5150 18565.6978 256.5088 0.0000 0.0000 -169829.2405 0.0000 -169829.2405 -169829.2405 0.0000 14518.5248 -5707.1337 534946.2959 14518.5248 -5707.1337
ENERGY: 460 197.0376 643.1462 2880.7447 0.0000 -193908.5401 19126.0242 308.5219 0.0000 0.0000 -170753.0655 0.0000 -170753.0655 -170753.0655 0.0000 14750.9513 -5655.6329 534946.2959 14750.9513 -5655.6329
ENERGY: 480 153.5664 653.0571 2878.9300 0.0000 -194273.2433 19273.4447 309.0639 0.0000 0.0000 -171005.1811 0.0000 -171005.1811 -171005.1811 0.0000 14859.5482 -5603.2132 534946.2959 14859.5482 -5603.2132
ENERGY: 500 183.5364 680.9932 2881.5724 0.0000 -195484.2810 19788.7287 315.2165 0.0000 0.0000 -171634.2339 0.0000 -171634.2339 -171634.2339 0.0000 15171.8865 -5445.4801 534946.2959 15171.8865 -5445.4801
TCL: Setting parameter constraintScaling to 0.3125
TCL: Minimizing for 100 steps
ETITLE: TS BOND ANGLE DIHED IMPRP ELECT VDW BOUNDARY MISC KINETIC TOTAL TEMP POTENTIAL TOTAL3 TEMPAVG PRESSURE GPRESSURE VOLUME PRESSAVG GPRESSAVG
ENERGY: 500 183.5364 680.9932 2881.5724 0.0000 -195484.2810 19788.7287 157.6082 0.0000 0.0000 -171791.8422 0.0000 -171791.8422 -171791.8422 0.0000 15370.2816 -26836.0404 534946.2959 15370.2816 -26836.0404
ENERGY: 520 148.6829 623.3995 2874.5346 0.0000 -195575.8699 19806.5679 163.5417 0.0000 0.0000 -171959.1433 0.0000 -171959.1433 -171959.1433 0.0000 15288.5159 -5297.5877 534946.2959 15288.5159 -5297.5877
ENERGY: 540 184.8226 663.0334 2867.1583 0.0000 -196093.7193 19948.7378 187.3352 0.0000 0.0000 -172242.6320 0.0000 -172242.6320 -172242.6320 0.0000 15339.9711 -5334.9425 534946.2959 15339.9711 -5334.9425
ENERGY: 560 161.2889 661.4445 2865.9990 0.0000 -196910.8985 20235.7337 215.2936 0.0000 0.0000 -172771.1388 0.0000 -172771.1388 -172771.1388 0.0000 15422.8399 -5338.1456 534946.2959 15422.8399 -5338.1456
ENERGY: 580 154.5658 631.8438 2871.2942 0.0000 -197518.2806 20529.5914 205.5398 0.0000 0.0000 -173125.4456 0.0000 -173125.4456 -173125.4456 0.0000 15593.5807 -5219.2160 534946.2959 15593.5807 -5219.2160
ENERGY: 600 178.7990 670.0547 2878.7559 0.0000 -198182.6935 20840.8848 209.8999 0.0000 0.0000 -173404.2993 0.0000 -173404.2993 -173404.2993 0.0000 15861.7220 -5082.0484 534946.2959 15861.7220 -5082.0484
TCL: Setting parameter constraintScaling to 0.15625
TCL: Minimizing for 100 steps
ETITLE: TS BOND ANGLE DIHED IMPRP ELECT VDW BOUNDARY MISC KINETIC TOTAL TEMP POTENTIAL TOTAL3 TEMPAVG PRESSURE GPRESSURE VOLUME PRESSAVG GPRESSAVG
ENERGY: 600 178.7990 670.0547 2878.7559 0.0000 -198182.6935 20840.8848 104.9499 0.0000 0.0000 -173509.2492 0.0000 -173509.2492 -173509.2492 0.0000 15980.9658 -26871.5247 534946.2959 15980.9658 -26871.5247
ENERGY: 620 169.6430 629.4652 2864.1757 0.0000 -198311.3908 20828.1406 112.0778 0.0000 0.0000 -173707.8884 0.0000 -173707.8884 -173707.8884 0.0000 15799.1135 -5090.9812 534946.2959 15799.1135 -5090.9812
ENERGY: 640 212.3638 661.6889 2859.1869 0.0000 -198671.5525 20908.3970 124.8358 0.0000 0.0000 -173905.0802 0.0000 -173905.0802 -173905.0802 0.0000 15802.9444 -5127.8913 534946.2959 15802.9444 -5127.8913
ENERGY: 660 154.5704 664.0542 2853.1454 0.0000 -198946.5286 20996.1106 131.3843 0.0000 0.0000 -174147.2636 0.0000 -174147.2636 -174147.2636 0.0000 15908.0906 -5099.3047 534946.2959 15908.0906 -5099.3047
ENERGY: 680 174.4862 665.1750 2855.3619 0.0000 -199200.5619 21099.0059 130.9076 0.0000 0.0000 -174275.6253 0.0000 -174275.6253 -174275.6253 0.0000 15900.7497 -5104.3961 534946.2959 15900.7497 -5104.3961
ENERGY: 700 177.4525 651.5535 2859.3256 0.0000 -199724.4464 21341.3182 133.1741 0.0000 0.0000 -174561.6226 0.0000 -174561.6226 -174561.6226 0.0000 16128.3953 -4969.9437 534946.2959 16128.3953 -4969.9437
TCL: Setting parameter constraintScaling to 0.078125
TCL: Minimizing for 100 steps
ETITLE: TS BOND ANGLE DIHED IMPRP ELECT VDW BOUNDARY MISC KINETIC TOTAL TEMP POTENTIAL TOTAL3 TEMPAVG PRESSURE GPRESSURE VOLUME PRESSAVG GPRESSAVG
ENERGY: 700 177.4525 651.5535 2859.3256 0.0000 -199724.4464 21341.3182 66.5870 0.0000 0.0000 -174628.2096 0.0000 -174628.2096 -174628.2096 0.0000 16196.6702 -27025.0298 534946.2959 16196.6702 -27025.0298
ENERGY: 720 237.1747 670.4485 2846.2924 0.0000 -200009.2404 21389.9728 72.4675 0.0000 0.0000 -174792.8844 0.0000 -174792.8844 -174792.8844 0.0000 16169.8857 -4976.0755 534946.2959 16169.8857 -4976.0755
ENERGY: 740 190.6821 656.3921 2844.4275 0.0000 -200430.9097 21537.5428 78.7537 0.0000 0.0000 -175123.1115 0.0000 -175123.1115 -175123.1115 0.0000 16129.4032 -5005.2361 534946.2959 16129.4032 -5005.2361
ENERGY: 760 173.0395 644.2992 2841.6902 0.0000 -200840.6034 21704.3581 80.6528 0.0000 0.0000 -175396.5636 0.0000 -175396.5636 -175396.5636 0.0000 16239.9563 -4961.1849 534946.2959 16239.9563 -4961.1849
ENERGY: 780 249.4378 670.3550 2837.6732 0.0000 -201889.7899 22165.5775 89.0590 0.0000 0.0000 -175877.6874 0.0000 -175877.6874 -175877.6874 0.0000 16521.7111 -4816.2136 534946.2959 16521.7111 -4816.2136
ENERGY: 800 168.3953 654.2979 2835.2621 0.0000 -202080.0368 22198.1569 92.1127 0.0000 0.0000 -176131.8119 0.0000 -176131.8119 -176131.8119 0.0000 16490.3069 -4855.9911 534946.2959 16490.3069 -4855.9911
TCL: Setting parameter constraintScaling to 0.0390625
TCL: Minimizing for 100 steps
ETITLE: TS BOND ANGLE DIHED IMPRP ELECT VDW BOUNDARY MISC KINETIC TOTAL TEMP POTENTIAL TOTAL3 TEMPAVG PRESSURE GPRESSURE VOLUME PRESSAVG GPRESSAVG
ENERGY: 800 168.3953 654.2979 2835.2621 0.0000 -202080.0368 22198.1569 46.0563 0.0000 0.0000 -176177.8682 0.0000 -176177.8682 -176177.8682 0.0000 16531.5012 -27260.5976 534946.2959 16531.5012 -27260.5976
ENERGY: 820 157.8539 647.6533 2828.2621 0.0000 -202151.9837 22219.4189 46.6935 0.0000 0.0000 -176252.1019 0.0000 -176252.1019 -176252.1019 0.0000 16582.2293 -4793.8955 534946.2959 16582.2293 -4793.8955
ENERGY: 840 221.9822 662.2290 2826.2931 0.0000 -202701.9295 22440.1865 50.2095 0.0000 0.0000 -176501.0292 0.0000 -176501.0292 -176501.0292 0.0000 16679.8284 -4756.7572 534946.2959 16679.8284 -4756.7572
ENERGY: 860 160.5473 657.6523 2823.8882 0.0000 -202989.3965 22551.3806 51.5633 0.0000 0.0000 -176744.3648 0.0000 -176744.3648 -176744.3648 0.0000 16756.6546 -4722.9836 534946.2959 16756.6546 -4722.9836
ENERGY: 880 174.4730 652.3947 2821.9123 0.0000 -203218.4594 22648.6934 52.4219 0.0000 0.0000 -176868.5641 0.0000 -176868.5641 -176868.5641 0.0000 16768.8069 -4722.5941 534946.2959 16768.8069 -4722.5941
ENERGY: 900 228.7607 658.6727 2819.8010 0.0000 -204478.0564 23249.7531 58.0342 0.0000 0.0000 -177463.0346 0.0000 -177463.0346 -177463.0346 0.0000 17075.1349 -4568.0598 534946.2959 17075.1349 -4568.0598
TCL: Setting parameter constraintScaling to 0.01953125
TCL: Minimizing for 100 steps
ETITLE: TS BOND ANGLE DIHED IMPRP ELECT VDW BOUNDARY MISC KINETIC TOTAL TEMP POTENTIAL TOTAL3 TEMPAVG PRESSURE GPRESSURE VOLUME PRESSAVG GPRESSAVG
ENERGY: 900 228.7607 658.6727 2819.8010 0.0000 -204478.0564 23249.7531 29.0171 0.0000 0.0000 -177492.0518 0.0000 -177492.0518 -177492.0518 0.0000 17099.2568 -27269.0112 534946.2959 17099.2568 -27269.0112
ENERGY: 920 156.8964 652.2799 2815.1203 0.0000 -204545.9055 23257.1767 29.4400 0.0000 0.0000 -177634.9922 0.0000 -177634.9922 -177634.9922 0.0000 17150.7006 -4508.0777 534946.2959 17150.7006 -4508.0777
ENERGY: 940 221.0457 677.8125 2813.7531 0.0000 -204863.2329 23387.0070 31.0264 0.0000 0.0000 -177732.5882 0.0000 -177732.5882 -177732.5882 0.0000 17226.8777 -4478.6817 534946.2959 17226.8777 -4478.6817
ENERGY: 960 172.3192 654.0334 2812.0738 0.0000 -205023.5750 23444.5689 31.4043 0.0000 0.0000 -177909.1754 0.0000 -177909.1754 -177909.1754 0.0000 17201.3065 -4499.0142 534946.2959 17201.3065 -4499.0142
ENERGY: 980 171.0615 650.0835 2813.3284 0.0000 -205277.6730 23558.8452 31.7955 0.0000 0.0000 -178052.5590 0.0000 -178052.5590 -178052.5590 0.0000 17257.8276 -4466.6468 534946.2959 17257.8276 -4466.6468
ENERGY: 1000 164.9169 651.1336 2810.8600 0.0000 -205482.3137 23643.4550 32.4508 0.0000 0.0000 -178179.4972 0.0000 -178179.4972 -178179.4972 0.0000 17310.0608 -4446.4191 534946.2959 17310.0608 -4446.4191
TCL: Setting parameter constraintScaling to 0
TCL: Minimizing for 5000 steps
ETITLE: TS BOND ANGLE DIHED IMPRP ELECT VDW BOUNDARY MISC KINETIC TOTAL TEMP POTENTIAL TOTAL3 TEMPAVG PRESSURE GPRESSURE VOLUME PRESSAVG GPRESSAVG
ENERGY: 1000 164.9169 651.1336 2810.8600 0.0000 -205482.3137 23643.4550 0.0000 0.0000 0.0000 -178211.9481 0.0000 -178211.9481 -178211.9481 0.0000 17335.9125 -27268.6650 534946.2959 17335.9125 -27268.6650
ENERGY: 2000 188.6691 665.0284 2800.6849 0.0000 -214921.1303 27850.5359 0.0000 0.0000 0.0000 -183416.2121 0.0000 -183416.2121 -183416.2121 0.0000 19554.1254 -3264.7832 534946.2959 19554.1254 -3264.7832
ENERGY: 3000 167.8517 661.4667 2793.0292 0.0000 -217498.0980 28866.7224 0.0000 0.0000 0.0000 -185009.0281 0.0000 -185009.0281 -185009.0281 0.0000 20093.1323 -2989.2752 534946.2959 20093.1323 -2989.2752
ENERGY: 4000 167.4217 662.5344 2786.8375 0.0000 -218721.2629 29365.5242 0.0000 0.0000 0.0000 -185738.9451 0.0000 -185738.9451 -185738.9451 0.0000 20366.5262 -2837.7857 534946.2959 20366.5262 -2837.7857
ENERGY: 5000 165.1438 663.4942 2787.4052 0.0000 -219442.1677 29668.4365 0.0000 0.0000 0.0000 -186157.6880 0.0000 -186157.6880 -186157.6880 0.0000 20522.5672 -2761.8822 534946.2959 20522.5672 -2761.8822
ENERGY: 6000 164.6590 662.8883 2786.1562 0.0000 -219939.4676 29875.1743 0.0000 0.0000 0.0000 -186450.5898 0.0000 -186450.5898 -186450.5898 0.0000 20635.7524 -2691.2849 534946.2959 20635.7524 -2691.2849
