Info: SIMULATION PARAMETERS:
Info: TIMESTEP               2
Info: NUMBER OF STEPS        0
Info: STEPS PER CYCLE        10
Info: PERIODIC CELL BASIS 1  72.449 0 0
Info: PERIODIC CELL BASIS 2  0 93.247 0
Info: PERIODIC CELL BASIS 3  0 0 79.185
Info: PERIODIC CELL CENTER   -0.248 -0.156 -0.047
Info: WRAPPING WATERS AROUND PERIODIC BOUNDARIES ON OUTPUT.
Info: WRAPPING ALL CLUSTERS AROUND PERIODIC BOUNDARIES ON OUTPUT.
Info: FIRST LDB TIMESTEP     50
Info: LAST LDB TIMESTEP     -1
Info: HOM BACKGROUND SCALING 1
Info: PME BACKGROUND SCALING 1
Info: MIN ATOMS PER PATCH    40
Info: INITIAL TEMPERATURE    0
Info: CENTER OF MASS MOVING INITIALLY? NO
Info: DIELECTRIC             1
Info: EXCLUDE                SCALED ONE-FOUR
Info: 1-4 ELECTROSTATICS SCALED BY 0.833333
Info: MODIFIED 1-4 VDW PARAMETERS WILL BE USED
Info: NO DCD TRAJECTORY OUTPUT
Info: NO EXTENDED SYSTEM TRAJECTORY OUTPUT
Info: NO VELOCITY DCD OUTPUT
Info: NO FORCE DCD OUTPUT
Info: OUTPUT FILENAME        ../replicas/rep15/equilibration/eq0
Info: NO RESTART FILE
Info: SWITCHING ACTIVE
Info: SWITCHING ON           10
Info: SWITCHING OFF          12
Info: PAIRLIST DISTANCE      13.5
Info: PAIRLIST SHRINK RATE   0.01
Info: PAIRLIST GROW RATE     0.01
Info: PAIRLIST TRIGGER       0.3
Info: PAIRLISTS PER CYCLE    2
Info: PAIRLISTS ENABLED
Info: MARGIN                 0
Info: HYDROGEN GROUP CUTOFF  2.5
Info: PATCH DIMENSION        16
Info: ENERGY OUTPUT STEPS    500
Info: CROSSTERM ENERGY INCLUDED IN DIHEDRAL
Info: TIMING OUTPUT STEPS    5000
Info: PRESSURE OUTPUT STEPS  500
Info: HARMONIC CONSTRAINTS ACTIVE
Info: HARMONIC CONS EXP      2
Info: HARMONIC CONS SCALING  10
Info: CONJUGATE GRADIENT MINIMIZATION ACTIVE
Info: LINE MINIMIZATION GOAL = 0.001
Info: BABY STEP SIZE = 0.01
Info: TINY STEP SIZE = 1e-06
Info: PARTICLE MESH EWALD (PME) ACTIVE
Info: PME TOLERANCE               1e-06
Info: PME EWALD COEFFICIENT       0.257952
Info: PME INTERPOLATION ORDER     4
Info: PME GRID DIMENSIONS         80 96 80
Info: PME MAXIMUM GRID SPACING    1
Info: FULL ELECTROSTATIC EVALUATION FREQUENCY      2
Info: USING VERLET I (r-RESPA) MTS SCHEME.
Info: C1 SPLITTING OF LONG RANGE ELECTROSTATICS
Info: PLACING ATOMS IN PATCHES BY HYDROGEN GROUPS
Info: RIGID BONDS TO HYDROGEN : ALL
Info:         ERROR TOLERANCE : 1e-05
Info:          MAX ITERATIONS : 100
Info: RIGID WATER USING SETTLE ALGORITHM
Info: RANDOM NUMBER SEED     1503700809
Info: USE HYDROGEN BONDS?    NO
Info: Using AMBER format force field!
Info: AMBER PARM FILE        ../build/complex.top
Info: COORDINATE PDB         ../build/complex.pdb
Info: Exclusions in PARM file will be ignored!
Info: SCNB (VDW SCALING)     2
Info: USING ARITHMETIC MEAN TO COMBINE L-J SIGMA PARAMETERS
Info: SUMMARY OF PARAMETERS:
Info: 71 BONDS
Info: 145 ANGLES
Info: 76 DIHEDRAL
Info: 0 IMPROPER
Info: 0 CROSSTERM
Info: 0 VDW
Info: 190 VDW_PAIRS
Info: 0 NBTHOLE_PAIRS
Info: STRUCTURE SUMMARY:
Info: 49394 ATOMS
Info: 49448 BONDS
Info: 8698 ANGLES
Info: 18780 DIHEDRALS
Info: 0 IMPROPERS
Info: 0 CROSSTERMS
Info: 0 EXCLUSIONS
Info: 2336 CONSTRAINTS
Info: 47058 RIGID BONDS
Info: 101124 DEGREES OF FREEDOM
Info: 17225 HYDROGEN GROUPS
Info: 4 ATOMS IN LARGEST HYDROGEN GROUP
Info: 17225 MIGRATION GROUPS
Info: 4 ATOMS IN LARGEST MIGRATION GROUP
Info: TOTAL MASS = 301478 amu
Info: TOTAL CHARGE = 1.00115e-05 e
Info: MASS DENSITY = 0.935846 g/cm^3
Info: ATOM DENSITY = 0.0923345 atoms/A^3
Info: ADDED 70656 IMPLICIT EXCLUSIONS
Info: NONBONDED TABLE R-SQUARED SPACING: 0.0625
Info: NONBONDED TABLE SIZE: 769 POINTS
Info: REMOVING COM VELOCITY 0 0 0
TCL: Minimizing for 100 steps
ETITLE: TS BOND ANGLE DIHED IMPRP ELECT VDW BOUNDARY MISC KINETIC TOTAL TEMP POTENTIAL TOTAL3 TEMPAVG PRESSURE GPRESSURE VOLUME PRESSAVG GPRESSAVG
ENERGY: 0 155.4176 1012.2698 2855.7272 0.0000 -154496.7911 207729.2052 0.0468 0.0000 0.0000 57255.8755 0.0000 57255.8755 57255.8755 0.0000 116350.2532 86546.1670 534946.2959 116350.2532 86546.1670
ENERGY: 20 304.7560 935.7912 2893.4663 0.0000 -158672.9412 17936.6591 143.9455 0.0000 0.0000 -136458.3231 0.0000 -136458.3231 -136458.3231 0.0000 16523.9383 -239.4562 534946.2959 16523.9383 -239.4562
ENERGY: 40 198.7455 799.5729 2896.9273 0.0000 -162811.4522 16417.9539 221.3030 0.0000 0.0000 -142276.9496 0.0000 -142276.9496 -142276.9496 0.0000 15011.2705 -2135.4695 534946.2959 15011.2705 -2135.4695
ENERGY: 60 130.5282 715.3440 2898.2166 0.0000 -167496.1570 15446.7539 315.2796 0.0000 0.0000 -147990.0347 0.0000 -147990.0347 -147990.0347 0.0000 13793.8837 -3799.3987 534946.2959 13793.8837 -3799.3987
ENERGY: 80 431.2720 765.6304 2904.3787 0.0000 -169937.5357 15121.1516 372.0124 0.0000 0.0000 -150343.0905 0.0000 -150343.0905 -150343.0905 0.0000 13270.3294 -4577.2465 534946.2959 13270.3294 -4577.2465
ENERGY: 100 119.3846 710.0599 2905.2591 0.0000 -171259.7127 14991.7869 387.3613 0.0000 0.0000 -152145.8609 0.0000 -152145.8609 -152145.8609 0.0000 13056.2655 -4908.1721 534946.2959 13056.2655 -4908.1721
TCL: Setting parameter constraintScaling to 5.0
TCL: Minimizing for 100 steps
ETITLE: TS BOND ANGLE DIHED IMPRP ELECT VDW BOUNDARY MISC KINETIC TOTAL TEMP POTENTIAL TOTAL3 TEMPAVG PRESSURE GPRESSURE VOLUME PRESSAVG GPRESSAVG
ENERGY: 100 119.3846 710.0599 2905.2591 0.0000 -171259.7127 14991.7869 193.6807 0.0000 0.0000 -152339.5416 0.0000 -152339.5416 -152339.5416 0.0000 13672.7716 -23021.8186 534946.2959 13672.7716 -23021.8186
ENERGY: 120 108.8816 687.5835 2912.9265 0.0000 -172865.8858 14798.2706 281.1916 0.0000 0.0000 -154077.0318 0.0000 -154077.0318 -154077.0318 0.0000 13218.2547 -4906.0172 534946.2959 13218.2547 -4906.0172
ENERGY: 140 309.4119 708.8645 2913.8024 0.0000 -174236.6994 14731.4799 326.6401 0.0000 0.0000 -155246.5006 0.0000 -155246.5006 -155246.5006 0.0000 12971.5247 -5303.2488 534946.2959 12971.5247 -5303.2488
ENERGY: 160 265.3005 683.1347 2923.1779 0.0000 -176275.6650 14757.3555 382.9016 0.0000 0.0000 -157263.7948 0.0000 -157263.7948 -157263.7948 0.0000 12740.9174 -5742.5048 534946.2959 12740.9174 -5742.5048
ENERGY: 180 268.8503 744.0960 2928.5662 0.0000 -178995.5959 15023.5451 473.3120 0.0000 0.0000 -159557.2264 0.0000 -159557.2264 -159557.2264 0.0000 12521.5935 -6223.3385 534946.2959 12521.5935 -6223.3385
ENERGY: 200 238.9451 694.0864 2941.3657 0.0000 -181556.4803 15587.1028 546.2700 0.0000 0.0000 -161548.7103 0.0000 -161548.7103 -161548.7103 0.0000 12582.6510 -6419.9767 534946.2959 12582.6510 -6419.9767
TCL: Setting parameter constraintScaling to 2.5
TCL: Minimizing for 100 steps
ETITLE: TS BOND ANGLE DIHED IMPRP ELECT VDW BOUNDARY MISC KINETIC TOTAL TEMP POTENTIAL TOTAL3 TEMPAVG PRESSURE GPRESSURE VOLUME PRESSAVG GPRESSAVG
ENERGY: 200 238.9451 694.0864 2941.3657 0.0000 -181556.4803 15587.1028 273.1350 0.0000 0.0000 -161821.8453 0.0000 -161821.8453 -161821.8453 0.0000 13229.5633 -25650.8000 534946.2959 13229.5633 -25650.8000
ENERGY: 220 251.1249 679.9198 2933.0264 0.0000 -182083.0083 15470.9745 338.5694 0.0000 0.0000 -162409.3932 0.0000 -162409.3932 -162409.3932 0.0000 12967.9917 -6090.2161 534946.2959 12967.9917 -6090.2161
ENERGY: 240 139.3045 665.8029 2928.6035 0.0000 -182462.6309 15494.2766 343.5830 0.0000 0.0000 -162891.0604 0.0000 -162891.0604 -162891.0604 0.0000 13034.3437 -6103.1408 534946.2959 13034.3437 -6103.1408
ENERGY: 260 164.5202 683.7592 2921.6070 0.0000 -183940.9741 15800.1256 385.4820 0.0000 0.0000 -163985.4801 0.0000 -163985.4801 -163985.4801 0.0000 13031.7956 -6242.0835 534946.2959 13031.7956 -6242.0835
ENERGY: 280 168.9953 700.8716 2917.5993 0.0000 -185422.4381 16228.6548 454.8489 0.0000 0.0000 -164951.4682 0.0000 -164951.4682 -164951.4682 0.0000 13143.3647 -6334.3574 534946.2959 13143.3647 -6334.3574
ENERGY: 300 126.6753 639.5365 2916.2513 0.0000 -186094.4253 16445.6685 481.3756 0.0000 0.0000 -165484.9181 0.0000 -165484.9181 -165484.9181 0.0000 13207.6697 -6338.9205 534946.2959 13207.6697 -6338.9205
TCL: Setting parameter constraintScaling to 1.25
TCL: Minimizing for 100 steps
ETITLE: TS BOND ANGLE DIHED IMPRP ELECT VDW BOUNDARY MISC KINETIC TOTAL TEMP POTENTIAL TOTAL3 TEMPAVG PRESSURE GPRESSURE VOLUME PRESSAVG GPRESSAVG
ENERGY: 300 126.6753 639.5365 2916.2513 0.0000 -186094.4253 16445.6685 240.6878 0.0000 0.0000 -165725.6060 0.0000 -165725.6060 -165725.6060 0.0000 13656.0158 -26348.8811 534946.2959 13656.0158 -26348.8811
ENERGY: 320 248.0169 662.0158 2911.8582 0.0000 -186749.3376 16600.7180 282.0526 0.0000 0.0000 -166044.6760 0.0000 -166044.6760 -166044.6760 0.0000 13578.0262 -6028.1717 534946.2959 13578.0262 -6028.1717
ENERGY: 340 138.1431 625.4188 2909.2982 0.0000 -187248.8273 16772.5419 289.0382 0.0000 0.0000 -166514.3872 0.0000 -166514.3872 -166514.3872 0.0000 13699.0721 -5967.1183 534946.2959 13699.0721 -5967.1183
ENERGY: 360 274.1555 701.1391 2908.5857 0.0000 -188951.4966 17360.8135 351.3243 0.0000 0.0000 -167355.4785 0.0000 -167355.4785 -167355.4785 0.0000 13902.3733 -5990.7671 534946.2959 13902.3733 -5990.7671
ENERGY: 380 273.2868 658.7874 2901.5668 0.0000 -190620.2764 18027.1267 409.4197 0.0000 0.0000 -168350.0889 0.0000 -168350.0889 -168350.0889 0.0000 14046.6223 -5976.0634 534946.2959 14046.6223 -5976.0634
ENERGY: 400 134.6286 643.9611 2899.3731 0.0000 -190596.3610 17988.1951 402.5132 0.0000 0.0000 -168527.6900 0.0000 -168527.6900 -168527.6900 0.0000 14144.7787 -5917.9144 534946.2959 14144.7787 -5917.9144
TCL: Setting parameter constraintScaling to 0.625
TCL: Minimizing for 100 steps
ETITLE: TS BOND ANGLE DIHED IMPRP ELECT VDW BOUNDARY MISC KINETIC TOTAL TEMP POTENTIAL TOTAL3 TEMPAVG PRESSURE GPRESSURE VOLUME PRESSAVG GPRESSAVG
ENERGY: 400 134.6286 643.9611 2899.3731 0.0000 -190596.3610 17988.1951 201.2566 0.0000 0.0000 -168728.9466 0.0000 -168728.9466 -168728.9466 0.0000 14446.6877 -26607.8265 534946.2959 14446.6877 -26607.8265
ENERGY: 420 300.8924 650.4395 2896.1956 0.0000 -191022.9005 18083.9264 224.4521 0.0000 0.0000 -168866.9946 0.0000 -168866.9946 -168866.9946 0.0000 14320.7387 -5748.6639 534946.2959 14320.7387 -5748.6639
ENERGY: 440 162.1162 632.1177 2890.7646 0.0000 -191478.0580 18221.8720 236.0039 0.0000 0.0000 -169335.1836 0.0000 -169335.1836 -169335.1836 0.0000 14435.0082 -5708.6404 534946.2959 14435.0082 -5708.6404
ENERGY: 460 215.3148 661.2862 2890.4597 0.0000 -192271.8523 18496.1141 259.7078 0.0000 0.0000 -169748.9697 0.0000 -169748.9697 -169748.9697 0.0000 14516.7155 -5709.9068 534946.2959 14516.7155 -5709.9068
ENERGY: 480 144.1221 635.6402 2879.5749 0.0000 -193557.4340 18993.1282 292.9828 0.0000 0.0000 -170611.9857 0.0000 -170611.9857 -170611.9857 0.0000 14714.7721 -5641.6755 534946.2959 14714.7721 -5641.6755
ENERGY: 500 152.8694 647.8919 2881.1048 0.0000 -194194.4297 19244.2211 312.3919 0.0000 0.0000 -170955.9506 0.0000 -170955.9506 -170955.9506 0.0000 14829.4761 -5618.3651 534946.2959 14829.4761 -5618.3651
TCL: Setting parameter constraintScaling to 0.3125
TCL: Minimizing for 100 steps
ETITLE: TS BOND ANGLE DIHED IMPRP ELECT VDW BOUNDARY MISC KINETIC TOTAL TEMP POTENTIAL TOTAL3 TEMPAVG PRESSURE GPRESSURE VOLUME PRESSAVG GPRESSAVG
ENERGY: 500 152.8694 647.8919 2881.1048 0.0000 -194194.4297 19244.2211 156.1960 0.0000 0.0000 -171112.1466 0.0000 -171112.1466 -171112.1466 0.0000 15027.3646 -26874.9730 534946.2959 15027.3646 -26874.9730
ENERGY: 520 162.2388 648.9748 2874.7611 0.0000 -194577.9478 19376.4503 167.1771 0.0000 0.0000 -171348.3457 0.0000 -171348.3457 -171348.3457 0.0000 15072.7770 -5424.8492 534946.2959 15072.7770 -5424.8492
ENERGY: 540 189.5455 659.8749 2873.1044 0.0000 -195404.7061 19669.6597 191.3242 0.0000 0.0000 -171821.1974 0.0000 -171821.1974 -171821.1974 0.0000 15174.6132 -5407.4230 534946.2959 15174.6132 -5407.4230
ENERGY: 560 197.3913 660.1562 2869.6261 0.0000 -196084.3137 19937.4605 207.0433 0.0000 0.0000 -172212.6362 0.0000 -172212.6362 -172212.6362 0.0000 15247.5167 -5388.7623 534946.2959 15247.5167 -5388.7623
ENERGY: 580 171.8053 672.2591 2864.4472 0.0000 -197140.8996 20379.6392 231.1480 0.0000 0.0000 -172821.6009 0.0000 -172821.6009 -172821.6009 0.0000 15515.7977 -5290.6725 534946.2959 15515.7977 -5290.6725
ENERGY: 600 151.2423 646.3235 2862.7398 0.0000 -197612.1962 20586.3457 241.0541 0.0000 0.0000 -173124.4909 0.0000 -173124.4909 -173124.4909 0.0000 15577.1354 -5256.3258 534946.2959 15577.1354 -5256.3258
TCL: Setting parameter constraintScaling to 0.15625
TCL: Minimizing for 100 steps
ETITLE: TS BOND ANGLE DIHED IMPRP ELECT VDW BOUNDARY MISC KINETIC TOTAL TEMP POTENTIAL TOTAL3 TEMPAVG PRESSURE GPRESSURE VOLUME PRESSAVG GPRESSAVG
ENERGY: 600 151.2423 646.3235 2862.7398 0.0000 -197612.1962 20586.3457 120.5270 0.0000 0.0000 -173245.0179 0.0000 -173245.0179 -173245.0179 0.0000 15704.8593 -27002.3261 534946.2959 15704.8593 -27002.3261
ENERGY: 620 155.7398 642.3981 2857.5881 0.0000 -197815.9173 20645.2805 123.9019 0.0000 0.0000 -173391.0088 0.0000 -173391.0088 -173391.0088 0.0000 15722.6987 -5133.3991 534946.2959 15722.6987 -5133.3991
ENERGY: 640 176.5332 645.0807 2854.9711 0.0000 -198217.3270 20772.6164 128.7845 0.0000 0.0000 -173639.3412 0.0000 -173639.3412 -173639.3412 0.0000 15778.5404 -5122.8549 534946.2959 15778.5404 -5122.8549
ENERGY: 660 193.9992 645.9693 2850.0747 0.0000 -198965.8331 21033.2416 139.2901 0.0000 0.0000 -174103.2581 0.0000 -174103.2581 -174103.2581 0.0000 15872.3581 -5110.4931 534946.2959 15872.3581 -5110.4931
ENERGY: 680 176.5839 658.3859 2848.0936 0.0000 -199259.6530 21139.2315 141.7839 0.0000 0.0000 -174295.5744 0.0000 -174295.5744 -174295.5744 0.0000 15955.8716 -5075.8149 534946.2959 15955.8716 -5075.8149
ENERGY: 700 192.5379 689.8868 2848.4257 0.0000 -200442.1520 21580.3775 158.0631 0.0000 0.0000 -174972.8609 0.0000 -174972.8609 -174972.8609 0.0000 16198.8332 -4998.6768 534946.2959 16198.8332 -4998.6768
TCL: Setting parameter constraintScaling to 0.078125
TCL: Minimizing for 100 steps
ETITLE: TS BOND ANGLE DIHED IMPRP ELECT VDW BOUNDARY MISC KINETIC TOTAL TEMP POTENTIAL TOTAL3 TEMPAVG PRESSURE GPRESSURE VOLUME PRESSAVG GPRESSAVG
ENERGY: 700 192.5379 689.8868 2848.4257 0.0000 -200442.1520 21580.3775 79.0316 0.0000 0.0000 -175051.8925 0.0000 -175051.8925 -175051.8925 0.0000 16274.2366 -27109.7662 534946.2959 16274.2366 -27109.7662
ENERGY: 720 163.9874 639.6916 2839.0222 0.0000 -200502.8360 21606.3031 80.0339 0.0000 0.0000 -175173.7977 0.0000 -175173.7977 -175173.7977 0.0000 16201.4180 -4957.4632 534946.2959 16201.4180 -4957.4632
ENERGY: 740 166.3068 651.1653 2834.5833 0.0000 -201042.2050 21804.4849 85.7423 0.0000 0.0000 -175499.9224 0.0000 -175499.9224 -175499.9224 0.0000 16331.0449 -4904.5874 534946.2959 16331.0449 -4904.5874
ENERGY: 760 169.5367 660.1790 2837.2486 0.0000 -201205.4787 21855.4291 87.4330 0.0000 0.0000 -175595.6523 0.0000 -175595.6523 -175595.6523 0.0000 16332.5454 -4915.4926 534946.2959 16332.5454 -4915.4926
ENERGY: 780 175.9538 650.2573 2831.0347 0.0000 -201772.2459 22071.9964 92.2259 0.0000 0.0000 -175950.7778 0.0000 -175950.7778 -175950.7778 0.0000 16444.8417 -4875.5158 534946.2959 16444.8417 -4875.5158
ENERGY: 800 161.4601 648.0325 2827.6555 0.0000 -202156.4968 22233.3727 95.7227 0.0000 0.0000 -176190.2534 0.0000 -176190.2534 -176190.2534 0.0000 16538.8921 -4826.0939 534946.2959 16538.8921 -4826.0939
TCL: Setting parameter constraintScaling to 0.0390625
TCL: Minimizing for 100 steps
ETITLE: TS BOND ANGLE DIHED IMPRP ELECT VDW BOUNDARY MISC KINETIC TOTAL TEMP POTENTIAL TOTAL3 TEMPAVG PRESSURE GPRESSURE VOLUME PRESSAVG GPRESSAVG
ENERGY: 800 161.4601 648.0325 2827.6555 0.0000 -202156.4968 22233.3727 47.8614 0.0000 0.0000 -176238.1147 0.0000 -176238.1147 -176238.1147 0.0000 16581.1740 -27219.9255 534946.2959 16581.1740 -27219.9255
ENERGY: 820 228.4091 659.7702 2827.7142 0.0000 -202454.5949 22345.0433 49.6537 0.0000 0.0000 -176344.0045 0.0000 -176344.0045 -176344.0045 0.0000 16610.8421 -4789.1610 534946.2959 16610.8421 -4789.1610
ENERGY: 840 209.1174 655.6209 2822.9566 0.0000 -202858.3951 22509.6039 51.7210 0.0000 0.0000 -176609.3752 0.0000 -176609.3752 -176609.3752 0.0000 16711.1820 -4734.2099 534946.2959 16711.1820 -4734.2099
ENERGY: 860 236.8151 667.7819 2824.2747 0.0000 -203106.6274 22605.8619 53.0253 0.0000 0.0000 -176718.8686 0.0000 -176718.8686 -176718.8686 0.0000 16749.9526 -4722.9876 534946.2959 16749.9526 -4722.9876
ENERGY: 880 169.8332 655.0556 2821.3249 0.0000 -203251.0481 22663.9373 53.6406 0.0000 0.0000 -176887.2565 0.0000 -176887.2565 -176887.2565 0.0000 16788.8856 -4707.3904 534946.2959 16788.8856 -4707.3904
ENERGY: 900 181.9421 663.3915 2817.2420 0.0000 -204118.1725 23047.9917 57.9881 0.0000 0.0000 -177349.6171 0.0000 -177349.6171 -177349.6171 0.0000 16991.2082 -4608.1185 534946.2959 16991.2082 -4608.1185
TCL: Setting parameter constraintScaling to 0.01953125
TCL: Minimizing for 100 steps
ETITLE: TS BOND ANGLE DIHED IMPRP ELECT VDW BOUNDARY MISC KINETIC TOTAL TEMP POTENTIAL TOTAL3 TEMPAVG PRESSURE GPRESSURE VOLUME PRESSAVG GPRESSAVG
ENERGY: 900 181.9421 663.3915 2817.2420 0.0000 -204118.1725 23047.9917 28.9940 0.0000 0.0000 -177378.6112 0.0000 -177378.6112 -177378.6112 0.0000 17015.2277 -27254.5147 534946.2959 17015.2277 -27254.5147
ENERGY: 920 165.8739 650.6858 2815.8460 0.0000 -204234.3669 23093.0434 29.5037 0.0000 0.0000 -177479.4143 0.0000 -177479.4143 -177479.4143 0.0000 17016.5743 -4590.4172 534946.2959 17016.5743 -4590.4172
ENERGY: 940 168.1782 649.6973 2813.7468 0.0000 -204459.2033 23190.8640 30.2269 0.0000 0.0000 -177606.4902 0.0000 -177606.4902 -177606.4902 0.0000 17066.6912 -4564.6005 534946.2959 17066.6912 -4564.6005
ENERGY: 960 162.2930 654.5661 2812.9642 0.0000 -204650.1608 23270.9196 30.8162 0.0000 0.0000 -177718.6016 0.0000 -177718.6016 -177718.6016 0.0000 17122.3017 -4542.0326 534946.2959 17122.3017 -4542.0326
ENERGY: 980 303.3048 700.8137 2817.5812 0.0000 -205073.2453 23458.7007 32.1069 0.0000 0.0000 -177760.7381 0.0000 -177760.7381 -177760.7381 0.0000 17174.1548 -4526.3979 534946.2959 17174.1548 -4526.3979
ENERGY: 1000 175.3302 651.2603 2809.7265 0.0000 -205536.7538 23669.0982 33.4405 0.0000 0.0000 -178197.8982 0.0000 -178197.8982 -178197.8982 0.0000 17303.0772 -4448.1744 534946.2959 17303.0772 -4448.1744
TCL: Setting parameter constraintScaling to 0
TCL: Minimizing for 5000 steps
ETITLE: TS BOND ANGLE DIHED IMPRP ELECT VDW BOUNDARY MISC KINETIC TOTAL TEMP POTENTIAL TOTAL3 TEMPAVG PRESSURE GPRESSURE VOLUME PRESSAVG GPRESSAVG
ENERGY: 1000 175.3302 651.2603 2809.7265 0.0000 -205536.7538 23669.0982 0.0000 0.0000 0.0000 -178231.3387 0.0000 -178231.3387 -178231.3387 0.0000 17329.5229 -27281.6821 534946.2959 17329.5229 -27281.6821
ENERGY: 2000 167.1781 664.8520 2799.9963 0.0000 -214751.7173 27845.8577 0.0000 0.0000 0.0000 -183273.8332 0.0000 -183273.8332 -183273.8332 0.0000 19571.8915 -3225.2032 534946.2959 19571.8915 -3225.2032
ENERGY: 3000 171.3536 668.7176 2798.3798 0.0000 -217397.7695 28860.7815 0.0000 0.0000 0.0000 -184898.5370 0.0000 -184898.5370 -184898.5370 0.0000 20082.8729 -3003.6258 534946.2959 20082.8729 -3003.6258
ENERGY: 4000 166.2985 663.2808 2789.4934 0.0000 -218658.9809 29306.7761 0.0000 0.0000 0.0000 -185733.1321 0.0000 -185733.1321 -185733.1321 0.0000 20327.6871 -2888.1566 534946.2959 20327.6871 -2888.1566
ENERGY: 5000 166.7905 664.9826 2784.1123 0.0000 -219391.9325 29611.1166 0.0000 0.0000 0.0000 -186164.9304 0.0000 -186164.9304 -186164.9304 0.0000 20480.3407 -2813.3682 534946.2959 20480.3407 -2813.3682
ENERGY: 6000 166.9317 665.9322 2782.5087 0.0000 -219851.6343 29784.0214 0.0000 0.0000 0.0000 -186452.2403 0.0000 -186452.2403 -186452.2403 0.0000 20568.5727 -2771.3167 534946.2959 20568.5727 -2771.3167
