Info: SIMULATION PARAMETERS:
Info: TIMESTEP               2
Info: NUMBER OF STEPS        0
Info: STEPS PER CYCLE        10
Info: PERIODIC CELL BASIS 1  72.449 0 0
Info: PERIODIC CELL BASIS 2  0 93.247 0
Info: PERIODIC CELL BASIS 3  0 0 79.185
Info: PERIODIC CELL CENTER   -0.248 -0.156 -0.047
Info: WRAPPING WATERS AROUND PERIODIC BOUNDARIES ON OUTPUT.
Info: WRAPPING ALL CLUSTERS AROUND PERIODIC BOUNDARIES ON OUTPUT.
Info: FIRST LDB TIMESTEP     50
Info: LAST LDB TIMESTEP     -1
Info: HOM BACKGROUND SCALING 1
Info: PME BACKGROUND SCALING 1
Info: MIN ATOMS PER PATCH    40
Info: INITIAL TEMPERATURE    0
Info: CENTER OF MASS MOVING INITIALLY? NO
Info: DIELECTRIC             1
Info: EXCLUDE                SCALED ONE-FOUR
Info: 1-4 ELECTROSTATICS SCALED BY 0.833333
Info: MODIFIED 1-4 VDW PARAMETERS WILL BE USED
Info: NO DCD TRAJECTORY OUTPUT
Info: NO EXTENDED SYSTEM TRAJECTORY OUTPUT
Info: NO VELOCITY DCD OUTPUT
Info: NO FORCE DCD OUTPUT
Info: OUTPUT FILENAME        ../replicas/rep5/equilibration/eq0
Info: NO RESTART FILE
Info: SWITCHING ACTIVE
Info: SWITCHING ON           10
Info: SWITCHING OFF          12
Info: PAIRLIST DISTANCE      13.5
Info: PAIRLIST SHRINK RATE   0.01
Info: PAIRLIST GROW RATE     0.01
Info: PAIRLIST TRIGGER       0.3
Info: PAIRLISTS PER CYCLE    2
Info: PAIRLISTS ENABLED
Info: MARGIN                 0
Info: HYDROGEN GROUP CUTOFF  2.5
Info: PATCH DIMENSION        16
Info: ENERGY OUTPUT STEPS    500
Info: CROSSTERM ENERGY INCLUDED IN DIHEDRAL
Info: TIMING OUTPUT STEPS    5000
Info: PRESSURE OUTPUT STEPS  500
Info: HARMONIC CONSTRAINTS ACTIVE
Info: HARMONIC CONS EXP      2
Info: HARMONIC CONS SCALING  10
Info: CONJUGATE GRADIENT MINIMIZATION ACTIVE
Info: LINE MINIMIZATION GOAL = 0.001
Info: BABY STEP SIZE = 0.01
Info: TINY STEP SIZE = 1e-06
Info: PARTICLE MESH EWALD (PME) ACTIVE
Info: PME TOLERANCE               1e-06
Info: PME EWALD COEFFICIENT       0.257952
Info: PME INTERPOLATION ORDER     4
Info: PME GRID DIMENSIONS         80 96 80
Info: PME MAXIMUM GRID SPACING    1
Info: FULL ELECTROSTATIC EVALUATION FREQUENCY      2
Info: USING VERLET I (r-RESPA) MTS SCHEME.
Info: C1 SPLITTING OF LONG RANGE ELECTROSTATICS
Info: PLACING ATOMS IN PATCHES BY HYDROGEN GROUPS
Info: RIGID BONDS TO HYDROGEN : ALL
Info:         ERROR TOLERANCE : 1e-05
Info:          MAX ITERATIONS : 100
Info: RIGID WATER USING SETTLE ALGORITHM
Info: RANDOM NUMBER SEED     1503249633
Info: USE HYDROGEN BONDS?    NO
Info: Using AMBER format force field!
Info: AMBER PARM FILE        ../build/complex.top
Info: COORDINATE PDB         ../build/complex.pdb
Info: Exclusions in PARM file will be ignored!
Info: SCNB (VDW SCALING)     2
Info: USING ARITHMETIC MEAN TO COMBINE L-J SIGMA PARAMETERS
Info: SUMMARY OF PARAMETERS:
Info: 71 BONDS
Info: 145 ANGLES
Info: 76 DIHEDRAL
Info: 0 IMPROPER
Info: 0 CROSSTERM
Info: 0 VDW
Info: 190 VDW_PAIRS
Info: 0 NBTHOLE_PAIRS
Info: STRUCTURE SUMMARY:
Info: 49394 ATOMS
Info: 49448 BONDS
Info: 8698 ANGLES
Info: 18780 DIHEDRALS
Info: 0 IMPROPERS
Info: 0 CROSSTERMS
Info: 0 EXCLUSIONS
Info: 2336 CONSTRAINTS
Info: 47058 RIGID BONDS
Info: 101124 DEGREES OF FREEDOM
Info: 17225 HYDROGEN GROUPS
Info: 4 ATOMS IN LARGEST HYDROGEN GROUP
Info: 17225 MIGRATION GROUPS
Info: 4 ATOMS IN LARGEST MIGRATION GROUP
Info: TOTAL MASS = 301478 amu
Info: TOTAL CHARGE = 1.00115e-05 e
Info: MASS DENSITY = 0.935846 g/cm^3
Info: ATOM DENSITY = 0.0923345 atoms/A^3
Info: ADDED 70656 IMPLICIT EXCLUSIONS
Info: NONBONDED TABLE R-SQUARED SPACING: 0.0625
Info: NONBONDED TABLE SIZE: 769 POINTS
Info: REMOVING COM VELOCITY 0 0 0
TCL: Minimizing for 100 steps
ETITLE: TS BOND ANGLE DIHED IMPRP ELECT VDW BOUNDARY MISC KINETIC TOTAL TEMP POTENTIAL TOTAL3 TEMPAVG PRESSURE GPRESSURE VOLUME PRESSAVG GPRESSAVG
ENERGY: 0 155.4176 1012.2698 2855.7272 0.0000 -154496.7912 207729.2052 0.0468 0.0000 0.0000 57255.8754 0.0000 57255.8754 57255.8754 0.0000 116350.2532 86546.1670 534946.2959 116350.2532 86546.1670
ENERGY: 20 304.7559 935.7912 2893.4663 0.0000 -158672.9413 17936.6591 143.9455 0.0000 0.0000 -136458.3233 0.0000 -136458.3233 -136458.3233 0.0000 16523.9383 -239.4563 534946.2959 16523.9383 -239.4563
ENERGY: 40 198.7453 799.5729 2896.9273 0.0000 -162811.4525 16417.9538 221.3030 0.0000 0.0000 -142276.9502 0.0000 -142276.9502 -142276.9502 0.0000 15011.2704 -2135.4696 534946.2959 15011.2704 -2135.4696
ENERGY: 60 130.5283 715.3440 2898.2166 0.0000 -167496.1564 15446.7540 315.2796 0.0000 0.0000 -147990.0339 0.0000 -147990.0339 -147990.0339 0.0000 13793.8838 -3799.3985 534946.2959 13793.8838 -3799.3985
ENERGY: 80 431.2719 765.6305 2904.3787 0.0000 -169937.5312 15121.1522 372.0123 0.0000 0.0000 -150343.0857 0.0000 -150343.0857 -150343.0857 0.0000 13270.3303 -4577.2452 534946.2959 13270.3303 -4577.2452
ENERGY: 100 129.7129 708.0645 2904.2781 0.0000 -171050.0636 15018.6539 384.2000 0.0000 0.0000 -151905.1542 0.0000 -151905.1542 -151905.1542 0.0000 13092.9132 -4843.6305 534946.2959 13092.9132 -4843.6305
TCL: Setting parameter constraintScaling to 5.0
TCL: Minimizing for 100 steps
ETITLE: TS BOND ANGLE DIHED IMPRP ELECT VDW BOUNDARY MISC KINETIC TOTAL TEMP POTENTIAL TOTAL3 TEMPAVG PRESSURE GPRESSURE VOLUME PRESSAVG GPRESSAVG
ENERGY: 100 129.7129 708.0645 2904.2781 0.0000 -171050.0636 15018.6539 192.1000 0.0000 0.0000 -152097.2543 0.0000 -152097.2543 -152097.2543 0.0000 13703.5084 -22944.4536 534946.2959 13703.5084 -22944.4536
ENERGY: 120 118.6818 680.2875 2909.9066 0.0000 -172396.3090 14830.1208 259.9548 0.0000 0.0000 -153597.3575 0.0000 -153597.3575 -153597.3575 0.0000 13320.9481 -4756.3061 534946.2959 13320.9481 -4756.3061
ENERGY: 140 109.1477 671.1469 2912.0863 0.0000 -174830.2488 14716.1439 337.7305 0.0000 0.0000 -156083.9935 0.0000 -156083.9935 -156083.9935 0.0000 12908.9608 -5423.1431 534946.2959 12908.9608 -5423.1431
ENERGY: 160 125.8516 667.1506 2914.1925 0.0000 -175967.0602 14735.1348 362.9191 0.0000 0.0000 -157161.8116 0.0000 -157161.8116 -157161.8116 0.0000 12806.8942 -5644.5254 534946.2959 12806.8942 -5644.5254
ENERGY: 180 303.4879 659.6832 2917.2967 0.0000 -177408.7619 14815.0190 395.3836 0.0000 0.0000 -158317.8915 0.0000 -158317.8915 -158317.8915 0.0000 12699.3144 -5901.5860 534946.2959 12699.3144 -5901.5860
ENERGY: 200 109.2070 628.4685 2923.3573 0.0000 -179543.6175 15071.1171 441.8754 0.0000 0.0000 -160369.5922 0.0000 -160369.5922 -160369.5922 0.0000 12659.9910 -6162.2200 534946.2959 12659.9910 -6162.2200
TCL: Setting parameter constraintScaling to 2.5
TCL: Minimizing for 100 steps
ETITLE: TS BOND ANGLE DIHED IMPRP ELECT VDW BOUNDARY MISC KINETIC TOTAL TEMP POTENTIAL TOTAL3 TEMPAVG PRESSURE GPRESSURE VOLUME PRESSAVG GPRESSAVG
ENERGY: 200 109.2070 628.4685 2923.3573 0.0000 -179543.6175 15071.1171 220.9377 0.0000 0.0000 -160590.5299 0.0000 -160590.5299 -160590.5299 0.0000 13208.4099 -25281.3406 534946.2959 13208.4099 -25281.3406
ENERGY: 220 169.1562 639.7806 2924.9560 0.0000 -180453.2371 15113.8835 291.2744 0.0000 0.0000 -161314.1864 0.0000 -161314.1864 -161314.1864 0.0000 13002.4255 -5924.8875 534946.2959 13002.4255 -5924.8875
ENERGY: 240 251.6766 643.1761 2921.4084 0.0000 -181893.4978 15358.7259 339.5737 0.0000 0.0000 -162378.9371 0.0000 -162378.9371 -162378.9371 0.0000 12963.9041 -6117.9815 534946.2959 12963.9041 -6117.9815
ENERGY: 260 174.5257 639.0190 2923.9241 0.0000 -184172.0667 15905.0040 437.1425 0.0000 0.0000 -164092.4513 0.0000 -164092.4513 -164092.4513 0.0000 13008.3888 -6316.2339 534946.2959 13008.3888 -6316.2339
ENERGY: 280 328.6248 683.5197 2917.5609 0.0000 -184849.0336 16110.2853 428.1103 0.0000 0.0000 -164380.9327 0.0000 -164380.9327 -164380.9327 0.0000 13133.4827 -6281.5331 534946.2959 13133.4827 -6281.5331
ENERGY: 300 138.6680 659.7641 2924.7973 0.0000 -186071.5587 16501.9736 425.4562 0.0000 0.0000 -165420.8995 0.0000 -165420.8995 -165420.8995 0.0000 13323.6103 -6220.8444 534946.2959 13323.6103 -6220.8444
TCL: Setting parameter constraintScaling to 1.25
TCL: Minimizing for 100 steps
ETITLE: TS BOND ANGLE DIHED IMPRP ELECT VDW BOUNDARY MISC KINETIC TOTAL TEMP POTENTIAL TOTAL3 TEMPAVG PRESSURE GPRESSURE VOLUME PRESSAVG GPRESSAVG
ENERGY: 300 138.6680 659.7641 2924.7973 0.0000 -186071.5587 16501.9736 212.7281 0.0000 0.0000 -165633.6276 0.0000 -165633.6276 -165633.6276 0.0000 13736.2593 -26266.5345 534946.2959 13736.2593 -26266.5345
ENERGY: 320 160.7597 642.2519 2909.6716 0.0000 -186934.6975 16698.4650 273.6578 0.0000 0.0000 -166249.8914 0.0000 -166249.8914 -166249.8914 0.0000 13702.0013 -5949.9364 534946.2959 13702.0013 -5949.9364
ENERGY: 340 223.0624 698.1290 2911.0227 0.0000 -188316.4743 17101.0927 352.0776 0.0000 0.0000 -167031.0900 0.0000 -167031.0900 -167031.0900 0.0000 13703.4907 -6082.7889 534946.2959 13703.4907 -6082.7889
ENERGY: 360 145.8393 648.5330 2904.2166 0.0000 -188532.2311 17188.1859 344.7045 0.0000 0.0000 -167300.7518 0.0000 -167300.7518 -167300.7518 0.0000 13790.0763 -6026.8295 534946.2959 13790.0763 -6026.8295
ENERGY: 380 172.2818 633.2268 2901.7429 0.0000 -189327.1950 17481.0010 343.1838 0.0000 0.0000 -167795.7587 0.0000 -167795.7587 -167795.7587 0.0000 13956.9085 -5959.4020 534946.2959 13956.9085 -5959.4020
ENERGY: 400 208.7067 661.4739 2912.4029 0.0000 -191212.9240 18242.6961 362.0048 0.0000 0.0000 -168825.6396 0.0000 -168825.6396 -168825.6396 0.0000 14299.6119 -5816.6767 534946.2959 14299.6119 -5816.6767
TCL: Setting parameter constraintScaling to 0.625
TCL: Minimizing for 100 steps
ETITLE: TS BOND ANGLE DIHED IMPRP ELECT VDW BOUNDARY MISC KINETIC TOTAL TEMP POTENTIAL TOTAL3 TEMPAVG PRESSURE GPRESSURE VOLUME PRESSAVG GPRESSAVG
ENERGY: 400 208.7067 661.4739 2912.4029 0.0000 -191212.9240 18242.6961 181.0024 0.0000 0.0000 -169006.6419 0.0000 -169006.6419 -169006.6419 0.0000 14589.6108 -26635.6681 534946.2959 14589.6108 -26635.6681
ENERGY: 420 154.1237 647.3398 2890.9072 0.0000 -191539.5919 18312.0020 208.7499 0.0000 0.0000 -169326.4693 0.0000 -169326.4693 -169326.4693 0.0000 14556.4040 -5599.9693 534946.2959 14556.4040 -5599.9693
ENERGY: 440 194.4767 733.5188 2904.5089 0.0000 -192918.0332 18733.9147 305.1959 0.0000 0.0000 -170046.4183 0.0000 -170046.4183 -170046.4183 0.0000 14495.8791 -5814.9541 534946.2959 14495.8791 -5814.9541
ENERGY: 460 164.5790 670.9796 2883.6816 0.0000 -193071.0395 18794.4130 289.4351 0.0000 0.0000 -170267.9511 0.0000 -170267.9511 -170267.9511 0.0000 14611.3036 -5716.6827 534946.2959 14611.3036 -5716.6827
ENERGY: 480 166.8307 664.4682 2913.3826 0.0000 -193776.7097 19159.7244 255.9840 0.0000 0.0000 -170616.3198 0.0000 -170616.3198 -170616.3198 0.0000 14882.9804 -5519.3207 534946.2959 14882.9804 -5519.3207
ENERGY: 500 158.2788 749.4622 2947.6843 0.0000 -194955.1231 19738.4918 262.8563 0.0000 0.0000 -171098.3497 0.0000 -171098.3497 -171098.3497 0.0000 15390.5198 -5197.6672 534946.2959 15390.5198 -5197.6672
TCL: Setting parameter constraintScaling to 0.3125
TCL: Minimizing for 100 steps
ETITLE: TS BOND ANGLE DIHED IMPRP ELECT VDW BOUNDARY MISC KINETIC TOTAL TEMP POTENTIAL TOTAL3 TEMPAVG PRESSURE GPRESSURE VOLUME PRESSAVG GPRESSAVG
ENERGY: 500 158.2788 749.4622 2947.6843 0.0000 -194955.1231 19738.4918 131.4282 0.0000 0.0000 -171229.7778 0.0000 -171229.7778 -171229.7778 0.0000 15577.9693 -26525.0437 534946.2959 15577.9693 -26525.0437
ENERGY: 520 247.3757 742.1115 2878.6425 0.0000 -195456.7665 19736.9764 176.1543 0.0000 0.0000 -171675.5060 0.0000 -171675.5060 -171675.5060 0.0000 15236.7192 -5401.4057 534946.2959 15236.7192 -5401.4057
ENERGY: 540 249.0648 741.9301 2890.9780 0.0000 -196282.9245 20011.1728 212.2121 0.0000 0.0000 -172177.5668 0.0000 -172177.5668 -172177.5668 0.0000 15221.7919 -5465.8553 534946.2959 15221.7919 -5465.8553
ENERGY: 560 172.9496 719.9588 2878.8905 0.0000 -197090.8298 20319.2131 234.5063 0.0000 0.0000 -172765.3116 0.0000 -172765.3116 -172765.3116 0.0000 15405.8643 -5378.7920 534946.2959 15405.8643 -5378.7920
ENERGY: 580 179.5906 679.2598 2872.1933 0.0000 -197201.4095 20354.0982 229.5523 0.0000 0.0000 -172886.7154 0.0000 -172886.7154 -172886.7154 0.0000 15398.5091 -5389.3588 534946.2959 15398.5091 -5389.3588
ENERGY: 600 158.1031 657.5838 2877.5220 0.0000 -197938.8104 20731.4409 211.5778 0.0000 0.0000 -173302.5828 0.0000 -173302.5828 -173302.5828 0.0000 15722.9254 -5150.2209 534946.2959 15722.9254 -5150.2209
TCL: Setting parameter constraintScaling to 0.15625
TCL: Minimizing for 100 steps
ETITLE: TS BOND ANGLE DIHED IMPRP ELECT VDW BOUNDARY MISC KINETIC TOTAL TEMP POTENTIAL TOTAL3 TEMPAVG PRESSURE GPRESSURE VOLUME PRESSAVG GPRESSAVG
ENERGY: 600 158.1031 657.5838 2877.5220 0.0000 -197938.8104 20731.4409 105.7889 0.0000 0.0000 -173408.3717 0.0000 -173408.3717 -173408.3717 0.0000 15844.1505 -26969.6797 534946.2959 15844.1505 -26969.6797
ENERGY: 620 200.1676 683.0714 2864.7167 0.0000 -198446.8952 20819.1641 125.4011 0.0000 0.0000 -173754.3744 0.0000 -173754.3744 -173754.3744 0.0000 15753.5144 -5177.6319 534946.2959 15753.5144 -5177.6319
ENERGY: 640 183.9716 702.8525 2861.1002 0.0000 -198985.8552 21024.1555 139.9181 0.0000 0.0000 -174073.8573 0.0000 -174073.8573 -174073.8573 0.0000 15855.8451 -5141.2110 534946.2959 15855.8451 -5141.2110
ENERGY: 660 172.6745 676.2921 2852.8670 0.0000 -199686.2714 21279.8271 149.8463 0.0000 0.0000 -174554.7643 0.0000 -174554.7643 -174554.7643 0.0000 15936.2258 -5135.0056 534946.2959 15936.2258 -5135.0056
ENERGY: 680 172.6349 666.1409 2845.8777 0.0000 -199916.9610 21378.9039 145.3855 0.0000 0.0000 -174708.0180 0.0000 -174708.0180 -174708.0180 0.0000 16049.8205 -5054.4572 534946.2959 16049.8205 -5054.4572
ENERGY: 700 158.8140 712.8146 2872.5063 0.0000 -200782.8431 21765.2056 146.3158 0.0000 0.0000 -175127.1868 0.0000 -175127.1868 -175127.1868 0.0000 16406.4024 -4836.5163 534946.2959 16406.4024 -4836.5163
TCL: Setting parameter constraintScaling to 0.078125
TCL: Minimizing for 100 steps
ETITLE: TS BOND ANGLE DIHED IMPRP ELECT VDW BOUNDARY MISC KINETIC TOTAL TEMP POTENTIAL TOTAL3 TEMPAVG PRESSURE GPRESSURE VOLUME PRESSAVG GPRESSAVG
ENERGY: 700 158.8140 712.8146 2872.5063 0.0000 -200782.8431 21765.2056 73.1579 0.0000 0.0000 -175200.3448 0.0000 -175200.3448 -175200.3448 0.0000 16480.0459 -27008.8783 534946.2959 16480.0459 -27008.8783
ENERGY: 720 163.8258 648.4549 2836.2515 0.0000 -200976.3987 21791.9030 78.2839 0.0000 0.0000 -175457.6795 0.0000 -175457.6795 -175457.6795 0.0000 16371.9630 -4868.1904 534946.2959 16371.9630 -4868.1904
ENERGY: 740 174.8014 666.3160 2841.1113 0.0000 -201295.3706 21885.3962 85.7024 0.0000 0.0000 -175642.0433 0.0000 -175642.0433 -175642.0433 0.0000 16308.2251 -4954.7882 534946.2959 16308.2251 -4954.7882
ENERGY: 760 314.1048 765.5261 2839.4662 0.0000 -201519.6608 22002.5931 84.9919 0.0000 0.0000 -175512.9787 0.0000 -175512.9787 -175512.9787 0.0000 16412.8399 -4870.0543 534946.2959 16412.8399 -4870.0543
ENERGY: 780 178.4426 654.1945 2838.3424 0.0000 -201671.3027 22049.1688 85.7976 0.0000 0.0000 -175865.3569 0.0000 -175865.3569 -175865.3569 0.0000 16443.4138 -4867.2942 534946.2959 16443.4138 -4867.2942
ENERGY: 800 225.1182 681.3004 2844.7962 0.0000 -202828.7255 22569.4097 95.3677 0.0000 0.0000 -176412.7334 0.0000 -176412.7334 -176412.7334 0.0000 16779.3649 -4682.7761 534946.2959 16779.3649 -4682.7761
TCL: Setting parameter constraintScaling to 0.0390625
TCL: Minimizing for 100 steps
ETITLE: TS BOND ANGLE DIHED IMPRP ELECT VDW BOUNDARY MISC KINETIC TOTAL TEMP POTENTIAL TOTAL3 TEMPAVG PRESSURE GPRESSURE VOLUME PRESSAVG GPRESSAVG
ENERGY: 800 225.1182 681.3004 2844.7962 0.0000 -202828.7255 22569.4097 47.6838 0.0000 0.0000 -176460.4172 0.0000 -176460.4172 -176460.4172 0.0000 16821.9465 -27158.5448 534946.2959 16821.9465 -27158.5448
ENERGY: 820 186.5629 673.7033 2828.5689 0.0000 -203070.6363 22614.5260 50.5254 0.0000 0.0000 -176716.7497 0.0000 -176716.7497 -176716.7497 0.0000 16791.0103 -4705.1070 534946.2959 16791.0103 -4705.1070
ENERGY: 840 247.9576 680.7233 2827.0276 0.0000 -203469.0449 22778.0250 54.0731 0.0000 0.0000 -176881.2383 0.0000 -176881.2383 -176881.2383 0.0000 16799.6705 -4721.5117 534946.2959 16799.6705 -4721.5117
ENERGY: 860 161.2633 657.8853 2825.5968 0.0000 -203655.1105 22855.8713 53.1091 0.0000 0.0000 -177101.3846 0.0000 -177101.3846 -177101.3846 0.0000 16890.8632 -4660.4437 534946.2959 16890.8632 -4660.4437
ENERGY: 880 271.5256 729.0607 2836.4985 0.0000 -204289.1270 23182.9632 55.2913 0.0000 0.0000 -177213.7877 0.0000 -177213.7877 -177213.7877 0.0000 17112.9600 -4507.7235 534946.2959 17112.9600 -4507.7235
ENERGY: 900 166.9147 663.8295 2820.8548 0.0000 -204495.1041 23211.6783 57.7435 0.0000 0.0000 -177574.0832 0.0000 -177574.0832 -177574.0832 0.0000 17056.9850 -4593.2524 534946.2959 17056.9850 -4593.2524
TCL: Setting parameter constraintScaling to 0.01953125
TCL: Minimizing for 100 steps
ETITLE: TS BOND ANGLE DIHED IMPRP ELECT VDW BOUNDARY MISC KINETIC TOTAL TEMP POTENTIAL TOTAL3 TEMPAVG PRESSURE GPRESSURE VOLUME PRESSAVG GPRESSAVG
ENERGY: 900 166.9147 663.8295 2820.8548 0.0000 -204495.1041 23211.6783 28.8718 0.0000 0.0000 -177602.9550 0.0000 -177602.9550 -177602.9550 0.0000 17080.9992 -27293.7921 534946.2959 17080.9992 -27293.7921
ENERGY: 920 165.2714 656.0891 2813.3399 0.0000 -204614.9298 23268.4501 29.3886 0.0000 0.0000 -177682.3908 0.0000 -177682.3908 -177682.3908 0.0000 17105.3743 -4557.4604 534946.2959 17105.3743 -4557.4604
ENERGY: 940 172.8693 674.7500 2816.2253 0.0000 -205131.5301 23487.7482 31.6147 0.0000 0.0000 -177948.3226 0.0000 -177948.3226 -177948.3226 0.0000 17218.3419 -4513.7981 534946.2959 17218.3419 -4513.7981
ENERGY: 960 172.1810 669.0778 2808.9307 0.0000 -205732.2767 23762.1765 33.5431 0.0000 0.0000 -178286.3677 0.0000 -178286.3677 -178286.3677 0.0000 17370.3172 -4429.9059 534946.2959 17370.3172 -4429.9059
ENERGY: 980 168.1473 654.7203 2809.9064 0.0000 -205794.5299 23788.5067 33.6476 0.0000 0.0000 -178339.6016 0.0000 -178339.6016 -178339.6016 0.0000 17358.6224 -4436.9455 534946.2959 17358.6224 -4436.9455
ENERGY: 1000 170.0462 648.7039 2809.6852 0.0000 -206176.7394 23981.4363 34.2086 0.0000 0.0000 -178532.6591 0.0000 -178532.6591 -178532.6591 0.0000 17479.7418 -4356.9072 534946.2959 17479.7418 -4356.9072
TCL: Setting parameter constraintScaling to 0
TCL: Minimizing for 5000 steps
ETITLE: TS BOND ANGLE DIHED IMPRP ELECT VDW BOUNDARY MISC KINETIC TOTAL TEMP POTENTIAL TOTAL3 TEMPAVG PRESSURE GPRESSURE VOLUME PRESSAVG GPRESSAVG
ENERGY: 1000 170.0462 648.7039 2809.6852 0.0000 -206176.7394 23981.4363 0.0000 0.0000 0.0000 -178566.8677 0.0000 -178566.8677 -178566.8677 0.0000 17506.5632 -27269.0935 534946.2959 17506.5632 -27269.0935
ENERGY: 2000 167.3980 663.3933 2801.6214 0.0000 -215101.7176 28008.1937 0.0000 0.0000 0.0000 -183461.1112 0.0000 -183461.1112 -183461.1112 0.0000 19666.3097 -3181.0428 534946.2959 19666.3097 -3181.0428
ENERGY: 3000 166.9571 665.4877 2797.6226 0.0000 -217581.5533 28927.0688 0.0000 0.0000 0.0000 -185024.4171 0.0000 -185024.4171 -185024.4171 0.0000 20136.2362 -2937.0000 534946.2959 20136.2362 -2937.0000
ENERGY: 4000 177.3199 667.5735 2788.1383 0.0000 -218943.2208 29515.1498 0.0000 0.0000 0.0000 -185795.0393 0.0000 -185795.0393 -185795.0393 0.0000 20454.3501 -2770.2089 534946.2959 20454.3501 -2770.2089
ENERGY: 5000 165.8818 665.9651 2784.8938 0.0000 -219530.3932 29687.8606 0.0000 0.0000 0.0000 -186225.7919 0.0000 -186225.7919 -186225.7919 0.0000 20533.0818 -2739.0188 534946.2959 20533.0818 -2739.0188
ENERGY: 6000 165.2203 666.8882 2782.5172 0.0000 -219980.4300 29895.6740 0.0000 0.0000 0.0000 -186470.1303 0.0000 -186470.1303 -186470.1303 0.0000 20648.2428 -2675.7606 534946.2959 20648.2428 -2675.7606
