Info: SIMULATION PARAMETERS:
Info: TIMESTEP               1
Info: NUMBER OF STEPS        0
Info: STEPS PER CYCLE        10
Info: PERIODIC CELL BASIS 1  72.449 0 0
Info: PERIODIC CELL BASIS 2  0 93.247 0
Info: PERIODIC CELL BASIS 3  0 0 79.185
Info: PERIODIC CELL CENTER   -0.248 -0.156 -0.047
Info: WRAPPING WATERS AROUND PERIODIC BOUNDARIES ON OUTPUT.
Info: WRAPPING ALL CLUSTERS AROUND PERIODIC BOUNDARIES ON OUTPUT.
Info: FIRST LDB TIMESTEP     50
Info: LAST LDB TIMESTEP     -1
Info: HOM BACKGROUND SCALING 1
Info: PME BACKGROUND SCALING 1
Info: MIN ATOMS PER PATCH    40
Info: VELOCITY FILE          ../replicas/rep19/equilibration/eq1.vel
Info: CENTER OF MASS MOVING INITIALLY? NO
Info: DIELECTRIC             1
Info: EXCLUDE                SCALED ONE-FOUR
Info: 1-4 ELECTROSTATICS SCALED BY 0.833333
Info: MODIFIED 1-4 VDW PARAMETERS WILL BE USED
Info: DCD FILENAME           ../replicas/rep19/equilibration/eq2.dcd
Info: DCD FREQUENCY          5000
Info: DCD FIRST STEP         5000
Info: DCD FILE WILL CONTAIN UNIT CELL DATA
Info: XST FILENAME           ../replicas/rep19/equilibration/eq2.xst
Info: XST FREQUENCY          5000
Info: NO VELOCITY DCD OUTPUT
Info: NO FORCE DCD OUTPUT
Info: OUTPUT FILENAME        ../replicas/rep19/equilibration/eq2
Info: RESTART FILENAME       ../replicas/rep19/equilibration/eq2.restart
Info: RESTART FREQUENCY      5000
Info: BINARY RESTART FILES WILL BE USED
Info: SWITCHING ACTIVE
Info: SWITCHING ON           10
Info: SWITCHING OFF          12
Info: PAIRLIST DISTANCE      13.5
Info: PAIRLIST SHRINK RATE   0.01
Info: PAIRLIST GROW RATE     0.01
Info: PAIRLIST TRIGGER       0.3
Info: PAIRLISTS PER CYCLE    2
Info: PAIRLISTS ENABLED
Info: MARGIN                 0.48
Info: HYDROGEN GROUP CUTOFF  2.5
Info: PATCH DIMENSION        16.48
Info: ENERGY OUTPUT STEPS    500
Info: CROSSTERM ENERGY INCLUDED IN DIHEDRAL
Info: TIMING OUTPUT STEPS    5000
Info: PRESSURE OUTPUT STEPS  500
Info: HARMONIC CONSTRAINTS ACTIVE
Info: HARMONIC CONS EXP      2
Info: HARMONIC CONS SCALING  10
Info: LANGEVIN DYNAMICS ACTIVE
Info: LANGEVIN TEMPERATURE   300
Info: LANGEVIN USING BBK INTEGRATOR
Info: LANGEVIN DAMPING COEFFICIENT IS 5 INVERSE PS
Info: LANGEVIN DYNAMICS NOT APPLIED TO HYDROGENS
Info: BERENDSEN PRESSURE COUPLING ACTIVE
Info:     TARGET PRESSURE IS 1 BAR
Info:     COMPRESSIBILITY ESTIMATE IS 4.57e-05 BAR^(-1)
Info:     RELAXATION TIME IS 100 FS
Info:     APPLIED EVERY 2 STEPS
Info:     PRESSURE CONTROL IS GROUP-BASED
Info:       CELL FLUCTUATION IS ISOTROPIC
Info: PARTICLE MESH EWALD (PME) ACTIVE
Info: PME TOLERANCE               1e-06
Info: PME EWALD COEFFICIENT       0.257952
Info: PME INTERPOLATION ORDER     4
Info: PME GRID DIMENSIONS         80 96 80
Info: PME MAXIMUM GRID SPACING    1
Info: FULL ELECTROSTATIC EVALUATION FREQUENCY      2
Info: USING VERLET I (r-RESPA) MTS SCHEME.
Info: C1 SPLITTING OF LONG RANGE ELECTROSTATICS
Info: PLACING ATOMS IN PATCHES BY HYDROGEN GROUPS
Info: RIGID BONDS TO HYDROGEN : WATER
Info:         ERROR TOLERANCE : 1e-05
Info:          MAX ITERATIONS : 100
Info: RIGID WATER USING SETTLE ALGORITHM
Info: RANDOM NUMBER SEED     1503708911
Info: USE HYDROGEN BONDS?    NO
Info: Using AMBER format force field!
Info: AMBER PARM FILE        ../build/complex.top
Info: COORDINATE PDB         ../replicas/rep19/equilibration/eq1.coor
Info: Exclusions in PARM file will be ignored!
Info: SCNB (VDW SCALING)     2
Info: USING ARITHMETIC MEAN TO COMBINE L-J SIGMA PARAMETERS
Info: SUMMARY OF PARAMETERS:
Info: 71 BONDS
Info: 145 ANGLES
Info: 76 DIHEDRAL
Info: 0 IMPROPER
Info: 0 CROSSTERM
Info: 0 VDW
Info: 190 VDW_PAIRS
Info: 0 NBTHOLE_PAIRS
Info: STRUCTURE SUMMARY:
Info: 49394 ATOMS
Info: 49448 BONDS
Info: 8698 ANGLES
Info: 18780 DIHEDRALS
Info: 0 IMPROPERS
Info: 0 CROSSTERMS
Info: 0 EXCLUSIONS
Info: 2336 CONSTRAINTS
Info: 44667 RIGID BONDS
Info: 103515 DEGREES OF FREEDOM
Info: 17225 HYDROGEN GROUPS
Info: 4 ATOMS IN LARGEST HYDROGEN GROUP
Info: 17225 MIGRATION GROUPS
Info: 4 ATOMS IN LARGEST MIGRATION GROUP
Info: TOTAL MASS = 301478 amu
Info: TOTAL CHARGE = 1.00115e-05 e
Info: MASS DENSITY = 0.935846 g/cm^3
Info: ATOM DENSITY = 0.0923345 atoms/A^3
Info: ADDED 70656 IMPLICIT EXCLUSIONS
Info: NONBONDED TABLE R-SQUARED SPACING: 0.0625
Info: NONBONDED TABLE SIZE: 769 POINTS
Info: REMOVING COM VELOCITY 0.0265676 -0.00217467 0.00401085
TCL: Running for 5000 steps
ETITLE: TS BOND ANGLE DIHED IMPRP ELECT VDW BOUNDARY MISC KINETIC TOTAL TEMP POTENTIAL TOTAL3 TEMPAVG PRESSURE GPRESSURE VOLUME PRESSAVG GPRESSAVG
ENERGY: 0 383.9455 1226.0064 2918.8933 0.0000 -212823.3640 29607.2608 0.0000 0.0000 10026.2661 -168660.9920 97.4824 -178687.2580 -168651.2889 97.4824 -2337.9399 -2435.2474 534946.2959 -2337.9399 -2435.2474
ENERGY: 1000 1240.4251 1946.9816 3103.0434 0.0000 -193788.2450 26620.5749 766.3299 0.0000 24120.6226 -135990.2674 234.5177 -160110.8900 -135961.3134 219.2040 46.6312 0.3537 522128.2103 -15.3860 -15.5440
ENERGY: 2000 1444.3168 2140.9096 3130.6480 0.0000 -183983.0039 23201.9401 855.6903 0.0000 27842.3049 -125367.1943 270.7025 -153209.4992 -125317.2578 265.0387 62.0215 -6.2955 514711.1577 -32.4025 -32.3622
ENERGY: 3000 1452.9428 2185.8490 3151.7743 0.0000 -179237.2380 21618.7779 793.7473 0.0000 29425.2745 -120608.8722 286.0933 -150034.1466 -120569.8199 283.8321 -7.9502 27.2354 511727.1934 -3.0653 -2.7158
ENERGY: 4000 1590.3210 2206.6562 3141.4330 0.0000 -177292.8234 20963.8523 843.2643 0.0000 30275.9076 -118271.3890 294.3637 -148547.2966 -118239.3073 293.3510 -67.1141 -38.6253 507447.2868 -7.4723 -7.7363
ENERGY: 5000 1609.8483 2225.3292 3138.6818 0.0000 -176160.7720 20391.1034 815.2899 0.0000 30453.9797 -117526.5396 296.0951 -147980.5193 -117484.6794 296.8137 -196.6358 -20.9287 506581.2816 1.4162 1.4714
TCL: Setting parameter constraintScaling to 5.0
TCL: Running for 5000 steps
ETITLE: TS BOND ANGLE DIHED IMPRP ELECT VDW BOUNDARY MISC KINETIC TOTAL TEMP POTENTIAL TOTAL3 TEMPAVG PRESSURE GPRESSURE VOLUME PRESSAVG GPRESSAVG
ENERGY: 5000 1609.8483 2225.3292 3138.6818 0.0000 -176160.7720 20391.1034 407.6450 0.0000 30451.9296 -117936.2347 296.0751 -148388.1643 -117894.1743 296.0751 -304.6034 -133.2013 506581.2816 -304.6034 -133.2013
ENERGY: 6000 1516.2777 2294.3186 3167.4547 0.0000 -176350.3167 20579.3530 670.5527 0.0000 30545.6135 -117576.7466 296.9860 -148122.3601 -117528.7846 296.6687 -32.6145 27.0711 503119.6913 -5.3242 -5.5837
ENERGY: 7000 1589.9558 2367.6141 3167.0184 0.0000 -176088.5902 20358.9745 664.8197 0.0000 30533.0467 -117407.1609 296.8638 -147940.2076 -117364.9078 297.9805 -166.4044 10.2430 503257.5347 -5.2165 -5.8537
ENERGY: 8000 1621.8030 2325.9852 3188.2825 0.0000 -175637.0862 20223.9812 638.4745 0.0000 30653.2293 -116985.3305 298.0323 -147638.5598 -116942.1358 299.7324 -15.2352 -40.2298 502468.0655 2.6169 2.8134
ENERGY: 9000 1638.4495 2283.4939 3140.7775 0.0000 -175310.5077 20256.1416 647.7828 0.0000 30798.0482 -116545.8141 299.4403 -147343.8623 -116495.2703 300.1737 15.9605 66.5699 502469.4590 7.2148 7.3112
ENERGY: 10000 1558.3676 2324.3133 3182.3679 0.0000 -175187.8646 19907.4405 652.9429 0.0000 30818.6146 -116743.8179 299.6403 -147562.4325 -116700.6565 299.2991 40.4663 15.6472 501126.1026 5.1718 4.7249
TCL: Setting parameter constraintScaling to 2.5
TCL: Running for 5000 steps
ETITLE: TS BOND ANGLE DIHED IMPRP ELECT VDW BOUNDARY MISC KINETIC TOTAL TEMP POTENTIAL TOTAL3 TEMPAVG PRESSURE GPRESSURE VOLUME PRESSAVG GPRESSAVG
ENERGY: 10000 1558.3676 2324.3133 3182.3679 0.0000 -175187.8646 19907.4405 326.4714 0.0000 30816.5516 -117072.3523 299.6202 -147888.9039 -117028.8929 299.6202 -29.2374 -47.9975 501126.1026 -29.2374 -47.9975
ENERGY: 11000 1713.6566 2337.0900 3165.8741 0.0000 -175723.4722 20134.5802 503.4084 0.0000 30866.3723 -117002.4906 300.1046 -147868.8629 -116962.0394 299.5884 -32.7089 10.2400 501066.7653 5.3718 5.6898
ENERGY: 12000 1599.8382 2371.7097 3183.0134 0.0000 -175562.3327 20170.1645 515.0819 0.0000 30910.8211 -116811.7039 300.5368 -147722.5250 -116759.5703 299.3291 -27.7298 -8.5989 501744.2559 6.7571 6.7329
ENERGY: 13000 1580.8588 2287.1307 3186.3901 0.0000 -175663.2546 20197.6586 537.5285 0.0000 30609.0745 -117264.6135 297.6030 -147873.6880 -117220.3347 299.0908 -65.8473 -50.5746 501902.4160 9.8237 9.9508
ENERGY: 14000 1590.8550 2327.7881 3172.7275 0.0000 -175534.2159 19992.1635 521.4381 0.0000 30875.2978 -117053.9460 300.1914 -147929.2438 -117000.7100 300.4695 -30.5931 -58.9914 501193.2171 6.8991 7.6575
ENERGY: 15000 1613.8905 2356.4680 3155.7542 0.0000 -175315.5976 19940.1400 500.8956 0.0000 30982.3066 -116766.1428 301.2318 -147748.4494 -116712.2731 301.2602 -0.7557 11.2015 500946.8319 15.3705 14.9833
TCL: Setting parameter constraintScaling to 1.25
TCL: Running for 5000 steps
ETITLE: TS BOND ANGLE DIHED IMPRP ELECT VDW BOUNDARY MISC KINETIC TOTAL TEMP POTENTIAL TOTAL3 TEMPAVG PRESSURE GPRESSURE VOLUME PRESSAVG GPRESSAVG
ENERGY: 15000 1613.8905 2356.4680 3155.7542 0.0000 -175315.5976 19940.1400 250.4478 0.0000 30980.3050 -117018.5922 301.2124 -147998.8972 -116977.5525 301.2124 -88.5062 -78.7456 500946.8319 -88.5062 -78.7456
ENERGY: 16000 1617.0358 2402.1650 3195.8301 0.0000 -175153.8200 19911.9049 385.9047 0.0000 30974.1148 -116666.8646 301.1522 -147640.9794 -116620.9783 301.0730 -118.2887 -35.8278 500305.6561 -0.3028 -0.5980
ENERGY: 17000 1689.0966 2432.8008 3234.0598 0.0000 -175538.2691 19994.7559 389.1676 0.0000 30787.8025 -117010.5859 299.3407 -147798.3884 -116970.1474 300.5397 -80.0505 -42.4278 499052.2519 0.0587 -0.3363
ENERGY: 18000 1729.3741 2360.6489 3210.6686 0.0000 -175503.2761 19977.3210 403.6205 0.0000 30827.2018 -116994.4412 299.7238 -147821.6430 -116947.8536 301.0015 -64.2022 8.8222 499189.4992 -2.8052 -2.2107
ENERGY: 19000 1663.7641 2345.3994 3212.0632 0.0000 -175620.8959 19966.5452 415.8104 0.0000 30848.6914 -117168.6222 299.9327 -148017.3136 -117119.9087 300.6689 -84.2732 -36.9266 498165.6406 -0.3277 -0.4585
ENERGY: 20000 1651.6016 2391.5399 3220.6860 0.0000 -175798.0582 19942.5894 404.6750 0.0000 30618.0009 -117568.9656 297.6898 -148186.9665 -117526.7828 300.1121 28.7408 -1.8999 498931.8072 3.7809 3.9611
TCL: Setting parameter constraintScaling to 0.625
TCL: Running for 5000 steps
ETITLE: TS BOND ANGLE DIHED IMPRP ELECT VDW BOUNDARY MISC KINETIC TOTAL TEMP POTENTIAL TOTAL3 TEMPAVG PRESSURE GPRESSURE VOLUME PRESSAVG GPRESSAVG
ENERGY: 20000 1651.6016 2391.5399 3220.6860 0.0000 -175798.0582 19942.5894 202.3375 0.0000 30615.9457 -117773.3583 297.6698 -148389.3039 -117729.7507 297.6698 -36.3177 -68.4948 498931.8072 -36.3177 -68.4948
ENERGY: 21000 1565.3108 2421.5992 3183.1766 0.0000 -176166.3504 20276.1955 322.6819 0.0000 30562.1375 -117835.2490 297.1466 -148397.3865 -117782.1930 297.9899 70.1457 70.0754 497764.9471 -0.7145 -0.4405
ENERGY: 22000 1618.0025 2422.9559 3213.5743 0.0000 -176122.3181 20231.2659 315.8696 0.0000 31067.9878 -117252.6622 302.0649 -148320.6500 -117202.2040 299.2808 63.0682 -33.2858 498987.8514 -5.2150 -5.3638
ENERGY: 23000 1661.5837 2368.9930 3188.4058 0.0000 -175518.8415 20093.2530 306.9102 0.0000 30839.6360 -117060.0598 299.8447 -147899.6958 -117021.5410 300.1649 3.7915 59.6088 500507.8644 11.7735 11.6268
ENERGY: 24000 1616.3732 2433.3941 3206.1265 0.0000 -175634.6512 20156.6804 328.8618 0.0000 30934.3394 -116958.8759 300.7654 -147893.2153 -116917.1226 299.2460 -4.0226 -8.9592 500289.9771 7.7179 7.8719
ENERGY: 25000 1640.0228 2473.4418 3230.9755 0.0000 -175734.2386 20034.2169 321.8793 0.0000 30723.4803 -117310.2219 298.7153 -148033.7022 -117266.7947 299.9394 20.5041 34.5161 497139.3902 -2.1371 -1.7817
TCL: Setting parameter constraintScaling to 0.3125
TCL: Running for 5000 steps
ETITLE: TS BOND ANGLE DIHED IMPRP ELECT VDW BOUNDARY MISC KINETIC TOTAL TEMP POTENTIAL TOTAL3 TEMPAVG PRESSURE GPRESSURE VOLUME PRESSAVG GPRESSAVG
ENERGY: 25000 1640.0228 2473.4418 3230.9755 0.0000 -175734.2386 20034.2169 160.9396 0.0000 30721.4310 -117473.2109 298.6954 -148194.6419 -117430.5390 298.6954 21.1247 31.9043 497139.3902 21.1247 31.9043
ENERGY: 26000 1679.0824 2370.7612 3258.2474 0.0000 -175984.9447 20309.9145 264.9785 0.0000 30719.4928 -117382.4678 298.6766 -148101.9606 -117337.8469 299.1294 36.9930 132.9969 498337.2650 6.2367 6.1446
ENERGY: 27000 1612.0605 2431.9740 3207.0474 0.0000 -176009.7809 20203.7490 248.7190 0.0000 30847.6524 -117458.5786 299.9226 -148306.2310 -117418.7294 299.4705 -66.4561 -19.1512 498995.4750 10.1029 10.1134
ENERGY: 28000 1652.6270 2396.1863 3204.0590 0.0000 -175767.1587 20124.7658 275.0970 0.0000 30823.8437 -117290.5800 299.6911 -148114.4236 -117237.3429 300.6093 -139.2589 -32.1776 499806.1093 10.5505 10.7062
ENERGY: 29000 1651.8873 2419.2276 3206.3359 0.0000 -175781.8122 20235.2330 262.9859 0.0000 30683.5131 -117322.6294 298.3267 -148006.1425 -117285.9517 299.5096 71.3155 55.9428 498513.4499 -6.4994 -6.5047
ENERGY: 30000 1568.6827 2331.2546 3204.1516 0.0000 -175363.5342 19775.3270 252.0943 0.0000 30945.2523 -117286.7716 300.8716 -148232.0239 -117246.4939 299.2916 -127.9473 -72.2099 498774.9661 1.7633 1.9529
TCL: Setting parameter constraintScaling to 0.15625
TCL: Running for 5000 steps
ETITLE: TS BOND ANGLE DIHED IMPRP ELECT VDW BOUNDARY MISC KINETIC TOTAL TEMP POTENTIAL TOTAL3 TEMPAVG PRESSURE GPRESSURE VOLUME PRESSAVG GPRESSAVG
ENERGY: 30000 1568.6827 2331.2546 3204.1516 0.0000 -175363.5342 19775.3270 126.0472 0.0000 30943.2127 -117414.8584 300.8517 -148358.0711 -117369.9992 300.8517 -162.6420 -115.9280 498774.9661 -162.6420 -115.9280
ENERGY: 31000 1608.3249 2393.0492 3225.8156 0.0000 -175894.9539 20157.5294 197.4390 0.0000 30888.7400 -117424.0557 300.3221 -148312.7957 -117381.8957 300.1206 23.3998 -2.9071 498790.2945 6.1889 6.6003
ENERGY: 32000 1574.4036 2405.7627 3189.3533 0.0000 -175549.9733 19765.6061 205.6322 0.0000 30905.4857 -117503.7297 300.4849 -148409.2153 -117452.5759 300.3806 -81.6796 -89.9807 497622.6152 -3.4493 -3.9304
ENERGY: 33000 1671.0459 2374.2554 3202.3348 0.0000 -175565.5613 20188.7503 208.3440 0.0000 30879.9956 -117040.8352 300.2371 -147920.8309 -116994.3642 300.4628 114.1877 45.9149 499753.1738 14.9789 14.9862
ENERGY: 34000 1638.2879 2370.1700 3196.5020 0.0000 -176031.8971 20175.4375 199.0809 0.0000 30755.5483 -117696.8705 299.0271 -148452.4188 -117656.5209 299.1285 -42.3487 -77.1652 497546.8554 -13.1305 -13.6007
ENERGY: 35000 1672.8276 2398.1366 3227.0356 0.0000 -176133.9789 20173.8246 204.1824 0.0000 30793.0990 -117664.8731 299.3922 -148457.9721 -117612.0668 299.2918 -17.4620 42.4453 495939.2465 -11.6433 -11.8026
TCL: Setting parameter constraintScaling to 0.078125
TCL: Running for 5000 steps
ETITLE: TS BOND ANGLE DIHED IMPRP ELECT VDW BOUNDARY MISC KINETIC TOTAL TEMP POTENTIAL TOTAL3 TEMPAVG PRESSURE GPRESSURE VOLUME PRESSAVG GPRESSAVG
ENERGY: 35000 1672.8276 2398.1366 3227.0356 0.0000 -176133.9789 20173.8246 102.0912 0.0000 30791.0373 -117769.0260 299.3722 -148560.0633 -117728.2559 299.3722 -54.8260 7.4895 495939.2465 -54.8260 7.4895
ENERGY: 36000 1600.4518 2461.8663 3220.7478 0.0000 -176102.9955 20087.8753 143.9778 0.0000 30538.9725 -118049.1040 296.9214 -148588.0765 -117997.6693 298.3040 42.7878 38.6197 495969.9794 -9.4055 -9.5563
ENERGY: 37000 1644.5552 2447.4197 3249.1725 0.0000 -176191.8235 20179.1565 168.4073 0.0000 30646.3156 -117856.7967 297.9651 -148503.1123 -117799.5325 299.5481 -51.1900 60.5904 496278.4662 4.5005 4.5899
ENERGY: 38000 1591.0270 2385.3889 3215.1420 0.0000 -176242.9711 20077.9319 160.5427 0.0000 30800.2078 -118012.7308 299.4613 -148812.9386 -117964.3564 298.8943 -148.2067 -131.9223 497504.7429 1.2068 0.9983
ENERGY: 39000 1632.3473 2504.6838 3214.6483 0.0000 -175550.2727 20004.3078 159.4771 0.0000 30869.3757 -117165.4327 300.1338 -148034.8084 -117117.7559 300.2370 -127.3801 7.8919 498821.6042 2.1651 2.0202
ENERGY: 40000 1627.3455 2403.1814 3190.6074 0.0000 -175243.5132 19820.9334 160.1361 0.0000 30906.7857 -117134.5237 300.4976 -148041.3094 -117100.3500 301.2121 92.1165 142.4978 497329.9936 -6.8086 -6.5949
TCL: Setting parameter constraintScaling to 0.0390625
TCL: Running for 5000 steps
ETITLE: TS BOND ANGLE DIHED IMPRP ELECT VDW BOUNDARY MISC KINETIC TOTAL TEMP POTENTIAL TOTAL3 TEMPAVG PRESSURE GPRESSURE VOLUME PRESSAVG GPRESSAVG
ENERGY: 40000 1627.3455 2403.1814 3190.6074 0.0000 -175243.5132 19820.9334 80.0681 0.0000 30904.7361 -117216.6413 300.4776 -148121.3774 -117173.7192 300.4776 80.3898 136.8006 497329.9936 80.3898 136.8006
ENERGY: 41000 1654.6277 2417.4873 3219.8831 0.0000 -175431.0760 19894.3083 102.9184 0.0000 30460.7322 -117681.1189 296.1607 -148141.8512 -117642.1197 299.3263 -74.2793 34.5132 496936.6714 8.2669 8.2065
ENERGY: 42000 1622.6488 2425.6334 3235.8442 0.0000 -176164.1269 20244.3382 120.1606 0.0000 30623.0517 -117892.4501 297.7389 -148515.5017 -117847.9292 298.6671 -5.4071 100.9009 498013.7098 8.2815 8.7570
ENERGY: 43000 1601.5636 2389.0346 3178.1493 0.0000 -175616.9003 19905.0753 119.2128 0.0000 30897.2503 -117526.6144 300.4048 -148423.8647 -117480.7684 299.3453 -56.5395 -17.3368 497266.7643 -0.2011 0.2876
ENERGY: 44000 1610.0505 2351.1956 3212.9566 0.0000 -175846.3018 20023.8538 131.0294 0.0000 30785.5817 -117731.6341 299.3191 -148517.2158 -117688.1976 300.2252 1.0053 10.0815 496923.6516 0.4085 0.2905
ENERGY: 45000 1617.9795 2430.5584 3228.8779 0.0000 -176100.1914 20097.6150 122.6764 0.0000 30862.8457 -117739.6385 300.0703 -148602.4842 -117690.7996 299.3925 43.5972 34.5659 497424.8853 7.9695 7.4082
TCL: Setting parameter constraintScaling to 0.01953125
TCL: Running for 5000 steps
ETITLE: TS BOND ANGLE DIHED IMPRP ELECT VDW BOUNDARY MISC KINETIC TOTAL TEMP POTENTIAL TOTAL3 TEMPAVG PRESSURE GPRESSURE VOLUME PRESSAVG GPRESSAVG
ENERGY: 45000 1617.9795 2430.5584 3228.8779 0.0000 -176100.1915 20097.6150 61.3382 0.0000 30860.7921 -117803.0303 300.0504 -148663.8224 -117754.2600 300.0504 35.8638 21.8339 497424.8853 35.8638 21.8339
ENERGY: 46000 1632.1651 2428.4895 3216.7130 0.0000 -176345.1617 20231.3281 89.5674 0.0000 30965.7322 -117781.1664 301.0707 -148746.8985 -117731.8554 299.5731 -94.0537 -8.8476 496549.9462 -1.0879 -2.0791
ENERGY: 47000 1638.0864 2389.5664 3158.0657 0.0000 -176145.7198 20026.2955 86.2600 0.0000 31153.0511 -117694.3948 302.8919 -148847.4459 -117652.0388 300.4879 21.1249 -43.7489 495955.3943 -2.3487 -2.8304
ENERGY: 48000 1637.2798 2403.1935 3205.6334 0.0000 -176436.7792 20225.1239 87.1172 0.0000 30744.2984 -118134.1330 298.9177 -148878.4314 -118095.5798 298.2566 -34.6653 -45.6758 496689.3150 -3.2471 -3.7200
ENERGY: 49000 1640.4080 2367.4343 3251.3281 0.0000 -175723.3194 19927.8444 87.8151 0.0000 30858.7402 -117589.7492 300.0304 -148448.4894 -117554.8567 299.8957 80.6969 44.6974 497720.8825 1.1181 1.4645
ENERGY: 50000 1620.0773 2367.3564 3227.4034 0.0000 -175612.9652 19848.2751 97.2387 0.0000 30801.3337 -117651.2807 299.4723 -148452.6143 -117612.1448 298.8964 -93.2205 -26.9008 497466.4165 10.1328 10.1603
TCL: Setting parameter constraintScaling to 0
TCL: Running for 5000 steps
ETITLE: TS BOND ANGLE DIHED IMPRP ELECT VDW BOUNDARY MISC KINETIC TOTAL TEMP POTENTIAL TOTAL3 TEMPAVG PRESSURE GPRESSURE VOLUME PRESSAVG GPRESSAVG
ENERGY: 50000 1620.0773 2367.3564 3227.4034 0.0000 -175612.9652 19848.2751 0.0000 0.0000 30799.3120 -117750.5411 299.4526 -148549.8530 -117710.0514 299.4526 -108.7155 -40.2988 497466.4165 -108.7155 -40.2988
ENERGY: 51000 1593.3283 2431.6194 3201.8513 0.0000 -175960.8776 20202.6989 0.0000 0.0000 30624.4961 -117906.8837 297.7529 -148531.3798 -117864.9950 298.8797 65.3093 109.0100 497427.6465 5.4492 4.9722
ENERGY: 52000 1633.5392 2336.5068 3195.6750 0.0000 -175934.4604 20125.3273 0.0000 0.0000 30870.8663 -117772.5458 300.1483 -148643.4121 -117718.4183 299.8802 -26.8399 21.7027 498096.2541 3.1183 2.4234
ENERGY: 53000 1637.6936 2392.8512 3211.7943 0.0000 -176053.2616 20186.9705 0.0000 0.0000 30718.5211 -117905.4309 298.6671 -148623.9519 -117868.9907 298.8982 40.9655 30.4221 497480.5649 2.3490 2.8593
ENERGY: 54000 1629.5110 2393.6471 3224.7792 0.0000 -176128.9395 20234.5700 0.0000 0.0000 30824.7336 -117821.6986 299.6998 -148646.4322 -117768.2309 299.3777 -3.9422 8.2256 497812.0595 10.7953 10.8022
ENERGY: 55000 1626.6134 2426.3366 3219.1934 0.0000 -175796.3586 20037.2713 0.0000 0.0000 30738.8211 -117748.1227 298.8645 -148486.9438 -117711.7120 300.2332 69.8695 1.4137 495634.9130 -12.8552 -12.7928
