Info: SIMULATION PARAMETERS:
Info: TIMESTEP               2
Info: NUMBER OF STEPS        0
Info: STEPS PER CYCLE        10
Info: PERIODIC CELL BASIS 1  72.449 0 0
Info: PERIODIC CELL BASIS 2  0 93.247 0
Info: PERIODIC CELL BASIS 3  0 0 79.185
Info: PERIODIC CELL CENTER   -0.248 -0.156 -0.047
Info: WRAPPING WATERS AROUND PERIODIC BOUNDARIES ON OUTPUT.
Info: WRAPPING ALL CLUSTERS AROUND PERIODIC BOUNDARIES ON OUTPUT.
Info: FIRST LDB TIMESTEP     50
Info: LAST LDB TIMESTEP     -1
Info: HOM BACKGROUND SCALING 1
Info: PME BACKGROUND SCALING 1
Info: MIN ATOMS PER PATCH    40
Info: INITIAL TEMPERATURE    0
Info: CENTER OF MASS MOVING INITIALLY? NO
Info: DIELECTRIC             1
Info: EXCLUDE                SCALED ONE-FOUR
Info: 1-4 ELECTROSTATICS SCALED BY 0.833333
Info: MODIFIED 1-4 VDW PARAMETERS WILL BE USED
Info: NO DCD TRAJECTORY OUTPUT
Info: NO EXTENDED SYSTEM TRAJECTORY OUTPUT
Info: NO VELOCITY DCD OUTPUT
Info: NO FORCE DCD OUTPUT
Info: OUTPUT FILENAME        ../replicas/rep94/equilibration/eq0
Info: NO RESTART FILE
Info: SWITCHING ACTIVE
Info: SWITCHING ON           10
Info: SWITCHING OFF          12
Info: PAIRLIST DISTANCE      13.5
Info: PAIRLIST SHRINK RATE   0.01
Info: PAIRLIST GROW RATE     0.01
Info: PAIRLIST TRIGGER       0.3
Info: PAIRLISTS PER CYCLE    2
Info: PAIRLISTS ENABLED
Info: MARGIN                 0
Info: HYDROGEN GROUP CUTOFF  2.5
Info: PATCH DIMENSION        16
Info: ENERGY OUTPUT STEPS    500
Info: CROSSTERM ENERGY INCLUDED IN DIHEDRAL
Info: TIMING OUTPUT STEPS    5000
Info: PRESSURE OUTPUT STEPS  500
Info: HARMONIC CONSTRAINTS ACTIVE
Info: HARMONIC CONS EXP      2
Info: HARMONIC CONS SCALING  10
Info: CONJUGATE GRADIENT MINIMIZATION ACTIVE
Info: LINE MINIMIZATION GOAL = 0.001
Info: BABY STEP SIZE = 0.01
Info: TINY STEP SIZE = 1e-06
Info: PARTICLE MESH EWALD (PME) ACTIVE
Info: PME TOLERANCE               1e-06
Info: PME EWALD COEFFICIENT       0.257952
Info: PME INTERPOLATION ORDER     4
Info: PME GRID DIMENSIONS         80 96 80
Info: PME MAXIMUM GRID SPACING    1
Info: FULL ELECTROSTATIC EVALUATION FREQUENCY      2
Info: USING VERLET I (r-RESPA) MTS SCHEME.
Info: C1 SPLITTING OF LONG RANGE ELECTROSTATICS
Info: PLACING ATOMS IN PATCHES BY HYDROGEN GROUPS
Info: RIGID BONDS TO HYDROGEN : ALL
Info:         ERROR TOLERANCE : 1e-05
Info:          MAX ITERATIONS : 100
Info: RIGID WATER USING SETTLE ALGORITHM
Info: RANDOM NUMBER SEED     1503691519
Info: USE HYDROGEN BONDS?    NO
Info: Using AMBER format force field!
Info: AMBER PARM FILE        ../build/complex.top
Info: COORDINATE PDB         ../build/complex.pdb
Info: Exclusions in PARM file will be ignored!
Info: SCNB (VDW SCALING)     2
Info: USING ARITHMETIC MEAN TO COMBINE L-J SIGMA PARAMETERS
Info: SUMMARY OF PARAMETERS:
Info: 71 BONDS
Info: 145 ANGLES
Info: 76 DIHEDRAL
Info: 0 IMPROPER
Info: 0 CROSSTERM
Info: 0 VDW
Info: 190 VDW_PAIRS
Info: 0 NBTHOLE_PAIRS
Info: STRUCTURE SUMMARY:
Info: 49394 ATOMS
Info: 49448 BONDS
Info: 8698 ANGLES
Info: 18780 DIHEDRALS
Info: 0 IMPROPERS
Info: 0 CROSSTERMS
Info: 0 EXCLUSIONS
Info: 2336 CONSTRAINTS
Info: 47058 RIGID BONDS
Info: 101124 DEGREES OF FREEDOM
Info: 17225 HYDROGEN GROUPS
Info: 4 ATOMS IN LARGEST HYDROGEN GROUP
Info: 17225 MIGRATION GROUPS
Info: 4 ATOMS IN LARGEST MIGRATION GROUP
Info: TOTAL MASS = 301478 amu
Info: TOTAL CHARGE = 1.00115e-05 e
Info: MASS DENSITY = 0.935846 g/cm^3
Info: ATOM DENSITY = 0.0923345 atoms/A^3
Info: ADDED 70656 IMPLICIT EXCLUSIONS
Info: NONBONDED TABLE R-SQUARED SPACING: 0.0625
Info: NONBONDED TABLE SIZE: 769 POINTS
Info: REMOVING COM VELOCITY 0 0 0
TCL: Minimizing for 100 steps
ETITLE: TS BOND ANGLE DIHED IMPRP ELECT VDW BOUNDARY MISC KINETIC TOTAL TEMP POTENTIAL TOTAL3 TEMPAVG PRESSURE GPRESSURE VOLUME PRESSAVG GPRESSAVG
ENERGY: 0 155.4176 1012.2698 2855.7272 0.0000 -154496.7911 207729.2052 0.0468 0.0000 0.0000 57255.8755 0.0000 57255.8755 57255.8755 0.0000 116350.2532 86546.1670 534946.2959 116350.2532 86546.1670
ENERGY: 20 304.7546 935.7911 2893.4663 0.0000 -158672.9402 17936.6596 143.9454 0.0000 0.0000 -136458.3233 0.0000 -136458.3233 -136458.3233 0.0000 16523.9389 -239.4556 534946.2959 16523.9389 -239.4556
ENERGY: 40 198.7452 799.5728 2896.9273 0.0000 -162811.4539 16417.9535 221.3030 0.0000 0.0000 -142276.9521 0.0000 -142276.9521 -142276.9521 0.0000 15011.2700 -2135.4701 534946.2959 15011.2700 -2135.4701
ENERGY: 60 130.5282 715.3440 2898.2166 0.0000 -167496.1589 15446.7536 315.2797 0.0000 0.0000 -147990.0369 0.0000 -147990.0369 -147990.0369 0.0000 13793.8833 -3799.3993 534946.2959 13793.8833 -3799.3993
ENERGY: 80 431.2730 765.6308 2904.3786 0.0000 -169937.5316 15121.1522 372.0122 0.0000 0.0000 -150343.0848 0.0000 -150343.0848 -150343.0848 0.0000 13270.3300 -4577.2461 534946.2959 13270.3300 -4577.2461
ENERGY: 100 129.7133 708.0646 2904.2780 0.0000 -171050.0666 15018.6536 384.2001 0.0000 0.0000 -151905.1570 0.0000 -151905.1570 -151905.1570 0.0000 13092.9127 -4843.6315 534946.2959 13092.9127 -4843.6315
TCL: Setting parameter constraintScaling to 5.0
TCL: Minimizing for 100 steps
ETITLE: TS BOND ANGLE DIHED IMPRP ELECT VDW BOUNDARY MISC KINETIC TOTAL TEMP POTENTIAL TOTAL3 TEMPAVG PRESSURE GPRESSURE VOLUME PRESSAVG GPRESSAVG
ENERGY: 100 129.7133 708.0646 2904.2780 0.0000 -171050.0667 15018.6536 192.1000 0.0000 0.0000 -152097.2570 0.0000 -152097.2570 -152097.2570 0.0000 13703.5080 -22944.4547 534946.2959 13703.5080 -22944.4547
ENERGY: 120 118.6822 680.2875 2909.9066 0.0000 -172396.3127 14830.1206 259.9549 0.0000 0.0000 -153597.3608 0.0000 -153597.3608 -153597.3608 0.0000 13320.9476 -4756.3069 534946.2959 13320.9476 -4756.3069
ENERGY: 140 109.1484 671.1471 2912.0863 0.0000 -174830.2433 14716.1440 337.7302 0.0000 0.0000 -156083.9872 0.0000 -156083.9872 -156083.9872 0.0000 12908.9614 -5423.1421 534946.2959 12908.9614 -5423.1421
ENERGY: 160 303.0044 691.2596 2915.1770 0.0000 -176082.6003 14739.2650 369.8390 0.0000 0.0000 -157064.0553 0.0000 -157064.0553 -157064.0553 0.0000 12780.5503 -5676.1851 534946.2959 12780.5503 -5676.1851
ENERGY: 180 182.1891 640.7530 2917.0632 0.0000 -177289.4088 14805.0568 391.8971 0.0000 0.0000 -158352.4496 0.0000 -158352.4496 -158352.4496 0.0000 12715.3609 -5865.3708 534946.2959 12715.3609 -5865.3708
ENERGY: 200 200.8290 672.8185 2923.8873 0.0000 -179263.0970 15029.6861 438.8854 0.0000 0.0000 -159996.9907 0.0000 -159996.9907 -159996.9907 0.0000 12652.1211 -6142.2175 534946.2959 12652.1211 -6142.2175
TCL: Setting parameter constraintScaling to 2.5
TCL: Minimizing for 100 steps
ETITLE: TS BOND ANGLE DIHED IMPRP ELECT VDW BOUNDARY MISC KINETIC TOTAL TEMP POTENTIAL TOTAL3 TEMPAVG PRESSURE GPRESSURE VOLUME PRESSAVG GPRESSAVG
ENERGY: 200 200.8290 672.8185 2923.8873 0.0000 -179263.0970 15029.6861 219.4427 0.0000 0.0000 -160216.4335 0.0000 -160216.4335 -160216.4335 0.0000 13194.5905 -25227.2520 534946.2959 13194.5905 -25227.2520
ENERGY: 220 129.4362 648.4200 2922.2168 0.0000 -180050.5412 15072.6040 269.1050 0.0000 0.0000 -161008.7592 0.0000 -161008.7592 -161008.7592 0.0000 13073.4317 -5815.9625 534946.2959 13073.4317 -5815.9625
ENERGY: 240 148.7077 630.0521 2922.2781 0.0000 -182011.3049 15361.3245 366.0783 0.0000 0.0000 -162582.8643 0.0000 -162582.8643 -162582.8643 0.0000 12906.9992 -6168.7792 534946.2959 12906.9992 -6168.7792
ENERGY: 260 225.6542 662.3446 2925.6683 0.0000 -183828.2078 15792.3257 453.5023 0.0000 0.0000 -163768.7127 0.0000 -163768.7127 -163768.7127 0.0000 12946.2521 -6341.0404 534946.2959 12946.2521 -6341.0404
ENERGY: 280 121.4657 633.4397 2921.9936 0.0000 -185453.6286 16338.8736 504.9651 0.0000 0.0000 -164932.8910 0.0000 -164932.8910 -164932.8910 0.0000 13109.6071 -6351.5818 534946.2959 13109.6071 -6351.5818
ENERGY: 300 160.8932 675.3903 2920.9602 0.0000 -186165.7183 16566.4284 445.6435 0.0000 0.0000 -165396.4027 0.0000 -165396.4027 -165396.4027 0.0000 13331.6557 -6210.2505 534946.2959 13331.6557 -6210.2505
TCL: Setting parameter constraintScaling to 1.25
TCL: Minimizing for 100 steps
ETITLE: TS BOND ANGLE DIHED IMPRP ELECT VDW BOUNDARY MISC KINETIC TOTAL TEMP POTENTIAL TOTAL3 TEMPAVG PRESSURE GPRESSURE VOLUME PRESSAVG GPRESSAVG
ENERGY: 300 160.8932 675.3903 2920.9602 0.0000 -186165.7183 16566.4284 222.8218 0.0000 0.0000 -165619.2245 0.0000 -165619.2245 -165619.2245 0.0000 13763.5437 -26248.3544 534946.2959 13763.5437 -26248.3544
ENERGY: 320 350.8087 723.6287 2937.5939 0.0000 -186896.5730 16677.5678 300.1016 0.0000 0.0000 -165906.8724 0.0000 -165906.8724 -165906.8724 0.0000 13583.6323 -6024.4818 534946.2959 13583.6323 -6024.4818
ENERGY: 340 132.8598 656.7193 2901.8697 0.0000 -187715.1700 16948.7319 314.3076 0.0000 0.0000 -166760.6817 0.0000 -166760.6817 -166760.6817 0.0000 13736.8904 -5982.2408 534946.2959 13736.8904 -5982.2408
ENERGY: 360 140.0806 635.6288 2910.0844 0.0000 -188293.4786 17102.1070 343.0503 0.0000 0.0000 -167162.5276 0.0000 -167162.5276 -167162.5276 0.0000 13745.4223 -6036.7506 534946.2959 13745.4223 -6036.7506
ENERGY: 380 218.4010 667.9576 2906.2662 0.0000 -189563.5823 17565.1514 350.1979 0.0000 0.0000 -167855.6082 0.0000 -167855.6082 -167855.6082 0.0000 14032.3219 -5936.8447 534946.2959 14032.3219 -5936.8447
ENERGY: 400 195.4414 633.6056 2901.5033 0.0000 -191618.0016 18446.8901 374.8640 0.0000 0.0000 -169065.6972 0.0000 -169065.6972 -169065.6972 0.0000 14356.9584 -5781.6409 534946.2959 14356.9584 -5781.6409
TCL: Setting parameter constraintScaling to 0.625
TCL: Minimizing for 100 steps
ETITLE: TS BOND ANGLE DIHED IMPRP ELECT VDW BOUNDARY MISC KINETIC TOTAL TEMP POTENTIAL TOTAL3 TEMPAVG PRESSURE GPRESSURE VOLUME PRESSAVG GPRESSAVG
ENERGY: 400 195.4414 633.6056 2901.5033 0.0000 -191618.0016 18446.8901 187.4320 0.0000 0.0000 -169253.1292 0.0000 -169253.1292 -169253.1292 0.0000 14652.6230 -26664.9141 534946.2959 14652.6230 -26664.9141
ENERGY: 420 139.5359 643.0726 2899.5329 0.0000 -191947.6871 18474.3753 221.4636 0.0000 0.0000 -169569.7070 0.0000 -169569.7070 -169569.7070 0.0000 14629.6931 -5582.4947 534946.2959 14629.6931 -5582.4947
ENERGY: 440 147.4279 668.3301 2882.5056 0.0000 -192714.3460 18724.6332 259.1725 0.0000 0.0000 -170032.2766 0.0000 -170032.2766 -170032.2766 0.0000 14646.1210 -5634.9648 534946.2959 14646.1210 -5634.9648
ENERGY: 460 147.0149 649.6302 2891.6207 0.0000 -192853.6615 18742.6956 266.2226 0.0000 0.0000 -170156.4774 0.0000 -170156.4774 -170156.4774 0.0000 14641.6067 -5660.9611 534946.2959 14641.6067 -5660.9611
ENERGY: 480 156.3387 642.5872 2888.3127 0.0000 -193723.3835 19087.9564 270.8023 0.0000 0.0000 -170677.3862 0.0000 -170677.3862 -170677.3862 0.0000 14857.6215 -5543.4642 534946.2959 14857.6215 -5543.4642
ENERGY: 500 158.5020 658.9090 2881.9898 0.0000 -194551.8928 19424.0352 290.6730 0.0000 0.0000 -171137.7838 0.0000 -171137.7838 -171137.7838 0.0000 14954.6679 -5526.4225 534946.2959 14954.6679 -5526.4225
TCL: Setting parameter constraintScaling to 0.3125
TCL: Minimizing for 100 steps
ETITLE: TS BOND ANGLE DIHED IMPRP ELECT VDW BOUNDARY MISC KINETIC TOTAL TEMP POTENTIAL TOTAL3 TEMPAVG PRESSURE GPRESSURE VOLUME PRESSAVG GPRESSAVG
ENERGY: 500 158.5020 658.9090 2881.9898 0.0000 -194551.8928 19424.0352 145.3365 0.0000 0.0000 -171283.1203 0.0000 -171283.1203 -171283.1203 0.0000 15143.2942 -26853.8196 534946.2959 15143.2942 -26853.8196
ENERGY: 520 160.0165 661.9672 2887.6208 0.0000 -194886.4207 19492.0185 165.3974 0.0000 0.0000 -171519.4003 0.0000 -171519.4003 -171519.4003 0.0000 15118.6242 -5406.1599 534946.2959 15118.6242 -5406.1599
ENERGY: 540 166.2345 670.2966 2876.4103 0.0000 -195964.5415 19879.3785 204.1351 0.0000 0.0000 -172168.0865 0.0000 -172168.0865 -172168.0865 0.0000 15249.8818 -5397.1514 534946.2959 15249.8818 -5397.1514
ENERGY: 560 169.2146 665.6563 2870.9753 0.0000 -196286.1362 20021.8963 201.0228 0.0000 0.0000 -172357.3709 0.0000 -172357.3709 -172357.3709 0.0000 15317.2960 -5357.4897 534946.2959 15317.2960 -5357.4897
ENERGY: 580 143.2181 644.3319 2873.4191 0.0000 -197227.9659 20423.0899 208.4975 0.0000 0.0000 -172935.4094 0.0000 -172935.4094 -172935.4094 0.0000 15578.2057 -5220.2651 534946.2959 15578.2057 -5220.2651
ENERGY: 600 158.0589 661.4675 2870.2256 0.0000 -198058.7604 20735.4784 234.0355 0.0000 0.0000 -173399.4946 0.0000 -173399.4946 -173399.4946 0.0000 15661.3972 -5228.1665 534946.2959 15661.3972 -5228.1665
TCL: Setting parameter constraintScaling to 0.15625
TCL: Minimizing for 100 steps
ETITLE: TS BOND ANGLE DIHED IMPRP ELECT VDW BOUNDARY MISC KINETIC TOTAL TEMP POTENTIAL TOTAL3 TEMPAVG PRESSURE GPRESSURE VOLUME PRESSAVG GPRESSAVG
ENERGY: 600 158.0589 661.4675 2870.2256 0.0000 -198058.7604 20735.4784 117.0177 0.0000 0.0000 -173516.5123 0.0000 -173516.5123 -173516.5123 0.0000 15787.8214 -27036.0628 534946.2959 15787.8214 -27036.0628
ENERGY: 620 152.1349 644.2201 2857.5212 0.0000 -198308.2773 20826.0967 120.9031 0.0000 0.0000 -173707.4014 0.0000 -173707.4014 -173707.4014 0.0000 15830.7578 -5087.7864 534946.2959 15830.7578 -5087.7864
ENERGY: 640 209.9511 684.8166 2859.5867 0.0000 -199208.7779 21127.4542 144.5309 0.0000 0.0000 -174182.4384 0.0000 -174182.4384 -174182.4384 0.0000 15903.5311 -5115.3373 534946.2959 15903.5311 -5115.3373
ENERGY: 660 165.9964 657.4054 2849.9545 0.0000 -199486.3424 21225.1279 144.6481 0.0000 0.0000 -174443.2100 0.0000 -174443.2100 -174443.2100 0.0000 15953.5015 -5088.6431 534946.2959 15953.5015 -5088.6431
ENERGY: 680 161.1916 642.2477 2851.7766 0.0000 -199964.6192 21412.2084 142.8350 0.0000 0.0000 -174754.3600 0.0000 -174754.3600 -174754.3600 0.0000 16095.5596 -5016.3806 534946.2959 16095.5596 -5016.3806
ENERGY: 700 170.0150 664.0690 2852.9899 0.0000 -201158.9291 21923.2634 155.7202 0.0000 0.0000 -175392.8716 0.0000 -175392.8716 -175392.8716 0.0000 16390.8574 -4864.5968 534946.2959 16390.8574 -4864.5968
TCL: Setting parameter constraintScaling to 0.078125
TCL: Minimizing for 100 steps
ETITLE: TS BOND ANGLE DIHED IMPRP ELECT VDW BOUNDARY MISC KINETIC TOTAL TEMP POTENTIAL TOTAL3 TEMPAVG PRESSURE GPRESSURE VOLUME PRESSAVG GPRESSAVG
ENERGY: 700 170.0150 664.0690 2852.9899 0.0000 -201158.9291 21923.2634 77.8601 0.0000 0.0000 -175470.7317 0.0000 -175470.7317 -175470.7317 0.0000 16466.9358 -27105.2077 534946.2959 16466.9358 -27105.2077
ENERGY: 720 153.4602 642.5375 2836.3101 0.0000 -201357.7249 21951.3761 82.2599 0.0000 0.0000 -175691.7811 0.0000 -175691.7811 -175691.7811 0.0000 16448.0897 -4831.4727 534946.2959 16448.0897 -4831.4727
ENERGY: 740 174.4129 656.6830 2835.4867 0.0000 -201717.3151 22068.6336 89.6610 0.0000 0.0000 -175892.4379 0.0000 -175892.4379 -175892.4379 0.0000 16425.1158 -4888.3861 534946.2959 16425.1158 -4888.3861
ENERGY: 760 167.5646 657.0465 2833.9216 0.0000 -201984.9136 22170.2874 92.6726 0.0000 0.0000 -176063.4209 0.0000 -176063.4209 -176063.4209 0.0000 16479.0073 -4864.9204 534946.2959 16479.0073 -4864.9204
ENERGY: 780 160.4335 640.2699 2834.0732 0.0000 -202397.5288 22349.0966 91.2784 0.0000 0.0000 -176322.3772 0.0000 -176322.3772 -176322.3772 0.0000 16630.3218 -4771.8221 534946.2959 16630.3218 -4771.8221
ENERGY: 800 155.3728 654.0731 2830.5110 0.0000 -203026.8813 22607.8736 97.0134 0.0000 0.0000 -176682.0373 0.0000 -176682.0373 -176682.0373 0.0000 16772.3164 -4711.3307 534946.2959 16772.3164 -4711.3307
TCL: Setting parameter constraintScaling to 0.0390625
TCL: Minimizing for 100 steps
ETITLE: TS BOND ANGLE DIHED IMPRP ELECT VDW BOUNDARY MISC KINETIC TOTAL TEMP POTENTIAL TOTAL3 TEMPAVG PRESSURE GPRESSURE VOLUME PRESSAVG GPRESSAVG
ENERGY: 800 155.3728 654.0731 2830.5110 0.0000 -203026.8813 22607.8736 48.5067 0.0000 0.0000 -176730.5441 0.0000 -176730.5441 -176730.5441 0.0000 16815.2902 -27202.7536 534946.2959 16815.2902 -27202.7536
ENERGY: 820 163.3017 657.4136 2823.1492 0.0000 -203271.8215 22689.3548 51.2862 0.0000 0.0000 -176887.3160 0.0000 -176887.3160 -176887.3160 0.0000 16836.2188 -4672.1818 534946.2959 16836.2188 -4672.1818
ENERGY: 840 181.2189 665.6589 2821.2301 0.0000 -203651.8268 22845.2514 53.2033 0.0000 0.0000 -177085.2642 0.0000 -177085.2642 -177085.2642 0.0000 16864.3588 -4677.7234 534946.2959 16864.3588 -4677.7234
ENERGY: 860 173.4890 656.5511 2827.2774 0.0000 -204185.9916 23092.5047 55.0612 0.0000 0.0000 -177381.1083 0.0000 -177381.1083 -177381.1083 0.0000 17025.2448 -4575.8115 534946.2959 17025.2448 -4575.8115
ENERGY: 880 161.1333 650.3989 2819.4311 0.0000 -205014.2806 23495.1049 60.0172 0.0000 0.0000 -177828.1952 0.0000 -177828.1952 -177828.1952 0.0000 17249.4452 -4453.0794 534946.2959 17249.4452 -4453.0794
ENERGY: 900 167.5639 668.7445 2812.5285 0.0000 -205240.1054 23563.2805 63.0832 0.0000 0.0000 -177964.9047 0.0000 -177964.9047 -177964.9047 0.0000 17237.8043 -4491.7460 534946.2959 17237.8043 -4491.7460
TCL: Setting parameter constraintScaling to 0.01953125
TCL: Minimizing for 100 steps
ETITLE: TS BOND ANGLE DIHED IMPRP ELECT VDW BOUNDARY MISC KINETIC TOTAL TEMP POTENTIAL TOTAL3 TEMPAVG PRESSURE GPRESSURE VOLUME PRESSAVG GPRESSAVG
ENERGY: 900 167.5639 668.7445 2812.5285 0.0000 -205240.1054 23563.2805 31.5416 0.0000 0.0000 -177996.4463 0.0000 -177996.4463 -177996.4463 0.0000 17262.8825 -27276.8199 534946.2959 17262.8825 -27276.8199
ENERGY: 920 165.5797 652.0704 2810.5426 0.0000 -205346.4849 23603.2329 31.6257 0.0000 0.0000 -178083.4335 0.0000 -178083.4335 -178083.4335 0.0000 17300.3285 -4442.6379 534946.2959 17300.3285 -4442.6379
ENERGY: 940 160.0367 649.2269 2810.7081 0.0000 -205555.5171 23688.6530 32.2125 0.0000 0.0000 -178214.6799 0.0000 -178214.6799 -178214.6799 0.0000 17348.0021 -4420.3071 534946.2959 17348.0021 -4420.3071
ENERGY: 960 167.4220 659.9913 2808.5331 0.0000 -205734.1938 23765.2767 32.9922 0.0000 0.0000 -178299.9784 0.0000 -178299.9784 -178299.9784 0.0000 17367.2496 -4429.4501 534946.2959 17367.2496 -4429.4501
ENERGY: 980 212.8353 703.4041 2810.5259 0.0000 -206167.1385 23949.1721 34.5706 0.0000 0.0000 -178456.6304 0.0000 -178456.6304 -178456.6304 0.0000 17459.7003 -4420.6152 534946.2959 17459.7003 -4420.6152
ENERGY: 1000 169.2571 654.8487 2807.4941 0.0000 -206230.3947 23977.0360 34.6224 0.0000 0.0000 -178587.1364 0.0000 -178587.1364 -178587.1364 0.0000 17470.9207 -4363.6232 534946.2959 17470.9207 -4363.6232
TCL: Setting parameter constraintScaling to 0
TCL: Minimizing for 5000 steps
ETITLE: TS BOND ANGLE DIHED IMPRP ELECT VDW BOUNDARY MISC KINETIC TOTAL TEMP POTENTIAL TOTAL3 TEMPAVG PRESSURE GPRESSURE VOLUME PRESSAVG GPRESSAVG
ENERGY: 1000 169.2571 654.8487 2807.4941 0.0000 -206230.3947 23977.0360 0.0000 0.0000 0.0000 -178621.7588 0.0000 -178621.7588 -178621.7588 0.0000 17497.7382 -27281.6754 534946.2959 17497.7382 -27281.6754
ENERGY: 2000 227.8619 688.2838 2801.0272 0.0000 -214980.2665 27840.8780 0.0000 0.0000 0.0000 -183422.2157 0.0000 -183422.2157 -183422.2157 0.0000 19545.1352 -3298.1220 534946.2959 19545.1352 -3298.1220
ENERGY: 3000 166.8355 664.9139 2797.0756 0.0000 -217624.1042 28960.4638 0.0000 0.0000 0.0000 -185034.8153 0.0000 -185034.8153 -185034.8153 0.0000 20164.3903 -2943.0022 534946.2959 20164.3903 -2943.0022
ENERGY: 4000 164.9108 663.9469 2788.8203 0.0000 -218847.2000 29437.6326 0.0000 0.0000 0.0000 -185791.8894 0.0000 -185791.8894 -185791.8894 0.0000 20413.1728 -2817.5823 534946.2959 20413.1728 -2817.5823
ENERGY: 5000 170.4392 669.1209 2789.3641 0.0000 -219503.2358 29679.5475 0.0000 0.0000 0.0000 -186194.7641 0.0000 -186194.7641 -186194.7641 0.0000 20535.1347 -2768.2027 534946.2959 20535.1347 -2768.2027
ENERGY: 6000 167.4544 668.2239 2781.9015 0.0000 -219909.5140 29844.8261 0.0000 0.0000 0.0000 -186447.1080 0.0000 -186447.1080 -186447.1080 0.0000 20621.8089 -2718.5385 534946.2959 20621.8089 -2718.5385
