Info: SIMULATION PARAMETERS:
Info: TIMESTEP               1
Info: NUMBER OF STEPS        0
Info: STEPS PER CYCLE        10
Info: PERIODIC CELL BASIS 1  72.449 0 0
Info: PERIODIC CELL BASIS 2  0 93.247 0
Info: PERIODIC CELL BASIS 3  0 0 79.185
Info: PERIODIC CELL CENTER   -0.248 -0.156 -0.047
Info: WRAPPING WATERS AROUND PERIODIC BOUNDARIES ON OUTPUT.
Info: WRAPPING ALL CLUSTERS AROUND PERIODIC BOUNDARIES ON OUTPUT.
Info: FIRST LDB TIMESTEP     50
Info: LAST LDB TIMESTEP     -1
Info: HOM BACKGROUND SCALING 1
Info: PME BACKGROUND SCALING 1
Info: MIN ATOMS PER PATCH    40
Info: VELOCITY FILE          ../replicas/rep1/equilibration/eq1.vel
Info: CENTER OF MASS MOVING INITIALLY? NO
Info: DIELECTRIC             1
Info: EXCLUDE                SCALED ONE-FOUR
Info: 1-4 ELECTROSTATICS SCALED BY 0.833333
Info: MODIFIED 1-4 VDW PARAMETERS WILL BE USED
Info: DCD FILENAME           ../replicas/rep1/equilibration/eq2.dcd
Info: DCD FREQUENCY          5000
Info: DCD FIRST STEP         5000
Info: DCD FILE WILL CONTAIN UNIT CELL DATA
Info: XST FILENAME           ../replicas/rep1/equilibration/eq2.xst
Info: XST FREQUENCY          5000
Info: NO VELOCITY DCD OUTPUT
Info: NO FORCE DCD OUTPUT
Info: OUTPUT FILENAME        ../replicas/rep1/equilibration/eq2
Info: RESTART FILENAME       ../replicas/rep1/equilibration/eq2.restart
Info: RESTART FREQUENCY      5000
Info: BINARY RESTART FILES WILL BE USED
Info: SWITCHING ACTIVE
Info: SWITCHING ON           10
Info: SWITCHING OFF          12
Info: PAIRLIST DISTANCE      13.5
Info: PAIRLIST SHRINK RATE   0.01
Info: PAIRLIST GROW RATE     0.01
Info: PAIRLIST TRIGGER       0.3
Info: PAIRLISTS PER CYCLE    2
Info: PAIRLISTS ENABLED
Info: MARGIN                 0.48
Info: HYDROGEN GROUP CUTOFF  2.5
Info: PATCH DIMENSION        16.48
Info: ENERGY OUTPUT STEPS    500
Info: CROSSTERM ENERGY INCLUDED IN DIHEDRAL
Info: TIMING OUTPUT STEPS    5000
Info: PRESSURE OUTPUT STEPS  500
Info: HARMONIC CONSTRAINTS ACTIVE
Info: HARMONIC CONS EXP      2
Info: HARMONIC CONS SCALING  10
Info: LANGEVIN DYNAMICS ACTIVE
Info: LANGEVIN TEMPERATURE   300
Info: LANGEVIN USING BBK INTEGRATOR
Info: LANGEVIN DAMPING COEFFICIENT IS 5 INVERSE PS
Info: LANGEVIN DYNAMICS NOT APPLIED TO HYDROGENS
Info: BERENDSEN PRESSURE COUPLING ACTIVE
Info:     TARGET PRESSURE IS 1 BAR
Info:     COMPRESSIBILITY ESTIMATE IS 4.57e-05 BAR^(-1)
Info:     RELAXATION TIME IS 100 FS
Info:     APPLIED EVERY 2 STEPS
Info:     PRESSURE CONTROL IS GROUP-BASED
Info:       CELL FLUCTUATION IS ISOTROPIC
Info: PARTICLE MESH EWALD (PME) ACTIVE
Info: PME TOLERANCE               1e-06
Info: PME EWALD COEFFICIENT       0.257952
Info: PME INTERPOLATION ORDER     4
Info: PME GRID DIMENSIONS         80 96 80
Info: PME MAXIMUM GRID SPACING    1
Info: FULL ELECTROSTATIC EVALUATION FREQUENCY      2
Info: USING VERLET I (r-RESPA) MTS SCHEME.
Info: C1 SPLITTING OF LONG RANGE ELECTROSTATICS
Info: PLACING ATOMS IN PATCHES BY HYDROGEN GROUPS
Info: RIGID BONDS TO HYDROGEN : WATER
Info:         ERROR TOLERANCE : 1e-05
Info:          MAX ITERATIONS : 100
Info: RIGID WATER USING SETTLE ALGORITHM
Info: RANDOM NUMBER SEED     1503693977
Info: USE HYDROGEN BONDS?    NO
Info: Using AMBER format force field!
Info: AMBER PARM FILE        ../build/complex.top
Info: COORDINATE PDB         ../replicas/rep1/equilibration/eq1.coor
Info: Exclusions in PARM file will be ignored!
Info: SCNB (VDW SCALING)     2
Info: USING ARITHMETIC MEAN TO COMBINE L-J SIGMA PARAMETERS
Info: SUMMARY OF PARAMETERS:
Info: 71 BONDS
Info: 145 ANGLES
Info: 76 DIHEDRAL
Info: 0 IMPROPER
Info: 0 CROSSTERM
Info: 0 VDW
Info: 190 VDW_PAIRS
Info: 0 NBTHOLE_PAIRS
Info: STRUCTURE SUMMARY:
Info: 49394 ATOMS
Info: 49448 BONDS
Info: 8698 ANGLES
Info: 18780 DIHEDRALS
Info: 0 IMPROPERS
Info: 0 CROSSTERMS
Info: 0 EXCLUSIONS
Info: 2336 CONSTRAINTS
Info: 44667 RIGID BONDS
Info: 103515 DEGREES OF FREEDOM
Info: 17225 HYDROGEN GROUPS
Info: 4 ATOMS IN LARGEST HYDROGEN GROUP
Info: 17225 MIGRATION GROUPS
Info: 4 ATOMS IN LARGEST MIGRATION GROUP
Info: TOTAL MASS = 301478 amu
Info: TOTAL CHARGE = 1.00115e-05 e
Info: MASS DENSITY = 0.935846 g/cm^3
Info: ATOM DENSITY = 0.0923345 atoms/A^3
Info: ADDED 70656 IMPLICIT EXCLUSIONS
Info: NONBONDED TABLE R-SQUARED SPACING: 0.0625
Info: NONBONDED TABLE SIZE: 769 POINTS
Info: REMOVING COM VELOCITY -0.0167972 -0.00356672 -0.033754
TCL: Running for 5000 steps
ETITLE: TS BOND ANGLE DIHED IMPRP ELECT VDW BOUNDARY MISC KINETIC TOTAL TEMP POTENTIAL TOTAL3 TEMPAVG PRESSURE GPRESSURE VOLUME PRESSAVG GPRESSAVG
ENERGY: 0 386.8491 1198.6159 2914.8761 0.0000 -212687.8522 29398.2207 0.0000 0.0000 10000.7935 -168788.4969 97.2348 -178789.2904 -168779.0266 97.2348 -2478.1588 -2579.8212 534946.2959 -2478.1588 -2579.8212
ENERGY: 1000 1249.4961 1963.8086 3108.8855 0.0000 -193472.4660 26241.3271 782.6426 0.0000 24172.2677 -135954.0384 235.0198 -160126.3061 -135933.0081 218.6049 -110.7350 -30.4482 522702.8882 -12.6619 -12.3285
ENERGY: 2000 1463.4654 2173.1682 3131.1002 0.0000 -185085.7026 23802.6605 809.1686 0.0000 27727.8566 -125978.2832 269.5898 -153706.1398 -125938.7842 263.4887 -43.7080 -30.4109 515201.6267 -33.0837 -32.7039
ENERGY: 3000 1495.9893 2181.3745 3141.4969 0.0000 -179559.6183 21666.3657 758.3533 0.0000 29800.5423 -120515.4963 289.7419 -150316.0386 -120463.6799 284.0353 42.3020 23.3890 509581.1576 -33.8807 -34.1128
ENERGY: 4000 1594.8272 2242.1578 3150.2770 0.0000 -177486.8072 20971.1186 803.0383 0.0000 30400.5221 -118324.8662 295.5753 -148725.3883 -118300.1004 293.0903 -115.3350 -0.8420 507321.3786 -11.4716 -11.3201
ENERGY: 5000 1573.1845 2293.4165 3147.9920 0.0000 -176059.0688 20630.5053 807.9059 0.0000 30576.3727 -117029.6920 297.2850 -147606.0647 -116993.1986 296.8285 -107.9610 6.1242 506440.7707 -2.6815 -2.1319
TCL: Setting parameter constraintScaling to 5.0
TCL: Running for 5000 steps
ETITLE: TS BOND ANGLE DIHED IMPRP ELECT VDW BOUNDARY MISC KINETIC TOTAL TEMP POTENTIAL TOTAL3 TEMPAVG PRESSURE GPRESSURE VOLUME PRESSAVG GPRESSAVG
ENERGY: 5000 1573.1845 2293.4165 3147.9920 0.0000 -176059.0688 20630.5053 403.9529 0.0000 30574.3438 -117435.6739 297.2653 -148010.0176 -117393.3653 297.2653 -115.7940 -1.1922 506440.7707 -115.7940 -1.1922
ENERGY: 6000 1618.7192 2386.6920 3200.0583 0.0000 -175846.4056 20683.0968 660.7508 0.0000 30551.7061 -116745.3825 297.0452 -147297.0886 -116710.5055 298.5956 -94.6703 16.2939 503180.9316 -9.6969 -9.8827
ENERGY: 7000 1659.1913 2342.4573 3183.1664 0.0000 -175448.2052 20018.6749 644.0776 0.0000 30938.8642 -116661.7735 300.8094 -147600.6377 -116621.4797 299.9612 -63.5234 -11.2008 503308.6817 -0.9293 -0.9977
ENERGY: 8000 1623.7179 2316.4031 3165.4120 0.0000 -175474.9483 20139.3474 651.0315 0.0000 30683.2378 -116895.7986 298.3241 -147579.0364 -116837.9513 299.8801 -72.4136 -23.3559 503359.7742 -4.1358 -3.6830
ENERGY: 9000 1588.4320 2332.2172 3146.0461 0.0000 -175668.6071 20218.4877 651.5011 0.0000 30889.4183 -116842.5047 300.3287 -147731.9230 -116788.3536 300.6532 -97.9031 17.1841 501998.0935 -13.4136 -12.7571
ENERGY: 10000 1555.5503 2327.9600 3159.4816 0.0000 -175933.8636 20334.4452 662.2085 0.0000 30783.1006 -117111.1174 299.2950 -147894.2180 -117063.5610 299.9545 48.6239 13.2390 500729.1591 -6.0653 -5.9727
TCL: Setting parameter constraintScaling to 2.5
TCL: Running for 5000 steps
ETITLE: TS BOND ANGLE DIHED IMPRP ELECT VDW BOUNDARY MISC KINETIC TOTAL TEMP POTENTIAL TOTAL3 TEMPAVG PRESSURE GPRESSURE VOLUME PRESSAVG GPRESSAVG
ENERGY: 10000 1555.5503 2327.9600 3159.4816 0.0000 -175933.8636 20334.4452 331.1043 0.0000 30781.0808 -117444.2415 299.2754 -148225.3223 -117399.1843 299.2754 9.0924 -23.0610 500729.1591 9.0924 -23.0610
ENERGY: 11000 1580.3404 2320.0035 3160.3475 0.0000 -176132.9472 20473.9475 503.8326 0.0000 30762.6111 -117331.8646 299.0958 -148094.4757 -117286.6967 298.3740 -55.4136 9.9286 500066.3454 -5.6996 -5.3225
ENERGY: 12000 1659.5006 2322.9928 3182.0483 0.0000 -175315.5849 19624.1722 515.5051 0.0000 30889.4952 -117121.8707 300.3294 -148011.3660 -117090.2189 299.7981 20.5899 30.6683 499238.3869 1.7258 1.9467
ENERGY: 13000 1595.3279 2325.2755 3187.3106 0.0000 -175281.0791 19966.5352 489.9197 0.0000 30669.7664 -117046.9437 298.1931 -147716.7101 -117003.3882 299.9545 109.6422 1.9398 500900.3660 10.3543 10.7534
ENERGY: 14000 1694.9055 2346.7063 3171.4275 0.0000 -175854.5265 20272.4434 493.2890 0.0000 30865.9058 -117009.8489 300.1001 -147875.7547 -116965.6981 299.9562 -59.9623 12.7993 500984.3956 13.2651 12.8936
ENERGY: 15000 1657.1671 2287.8025 3140.6108 0.0000 -175909.9664 20167.3528 484.6763 0.0000 31062.0298 -117110.3272 302.0069 -148172.3570 -117055.1822 300.0565 78.0453 47.1943 498880.1126 -9.6964 -9.6807
TCL: Setting parameter constraintScaling to 1.25
TCL: Running for 5000 steps
ETITLE: TS BOND ANGLE DIHED IMPRP ELECT VDW BOUNDARY MISC KINETIC TOTAL TEMP POTENTIAL TOTAL3 TEMPAVG PRESSURE GPRESSURE VOLUME PRESSAVG GPRESSAVG
ENERGY: 15000 1657.1671 2287.8025 3140.6108 0.0000 -175909.9664 20167.3528 242.3381 0.0000 31059.9558 -117354.7393 301.9868 -148414.6951 -117308.3136 301.9868 45.6846 17.9064 498880.1126 45.6846 17.9064
ENERGY: 16000 1706.6266 2372.6330 3153.0059 0.0000 -175692.7265 20029.6626 409.4780 0.0000 31030.8734 -116990.4470 301.7040 -148021.3204 -116949.5138 300.0531 -157.4353 -57.5230 498730.4683 5.3841 5.4035
ENERGY: 17000 1629.6875 2431.9571 3228.3213 0.0000 -176165.8738 20414.5693 402.6194 0.0000 30569.3281 -117489.3911 297.2166 -148058.7192 -117444.2720 298.7416 29.2437 75.6979 499259.7147 -3.8755 -4.1362
ENERGY: 18000 1697.8378 2383.1939 3196.5091 0.0000 -175545.7364 19903.2446 416.5850 0.0000 30889.1119 -117059.2541 300.3257 -147948.3660 -117003.9854 300.0572 -56.2622 1.7536 499138.5012 -1.1934 -1.0240
ENERGY: 19000 1711.3301 2435.7942 3188.4706 0.0000 -176283.6848 20355.7286 395.5802 0.0000 30756.1553 -117440.6260 299.0330 -148196.7812 -117388.9817 300.3433 -159.3328 -17.0877 496753.7331 -13.0796 -12.9049
ENERGY: 20000 1625.5417 2374.5098 3202.8974 0.0000 -175765.4271 19911.4320 396.9317 0.0000 30825.5098 -117428.6046 299.7073 -148254.1144 -117391.8362 299.8636 136.5609 47.4844 497307.6566 5.1899 5.2339
TCL: Setting parameter constraintScaling to 0.625
TCL: Running for 5000 steps
ETITLE: TS BOND ANGLE DIHED IMPRP ELECT VDW BOUNDARY MISC KINETIC TOTAL TEMP POTENTIAL TOTAL3 TEMPAVG PRESSURE GPRESSURE VOLUME PRESSAVG GPRESSAVG
ENERGY: 20000 1625.5417 2374.5098 3202.8974 0.0000 -175765.4271 19911.4320 198.4658 0.0000 30823.4724 -117629.1079 299.6875 -148452.5803 -117584.7516 299.6875 77.3983 -14.2743 497307.6566 77.3983 -14.2743
ENERGY: 21000 1645.7521 2399.4260 3222.7694 0.0000 -175365.8116 20044.7082 307.3760 0.0000 30787.4124 -116958.3676 299.3369 -147745.7799 -116921.0369 299.7570 53.8992 96.3003 496408.3741 4.4910 3.9891
ENERGY: 22000 1618.8311 2416.8496 3216.6195 0.0000 -175875.8275 20185.7792 301.2093 0.0000 31043.0078 -117093.5310 301.8220 -148136.5388 -117045.8850 300.3531 -55.8547 26.9254 498372.3725 17.0132 17.4950
ENERGY: 23000 1609.2612 2381.6349 3213.9388 0.0000 -175187.2691 19917.7387 312.4483 0.0000 30783.8544 -116968.3928 299.3023 -147752.2472 -116929.8680 300.1901 -123.5767 -46.9648 499537.1946 0.0360 0.1522
ENERGY: 24000 1683.0954 2368.0902 3218.7518 0.0000 -175276.0032 19912.5853 327.2650 0.0000 30992.6023 -116773.6132 301.3319 -147766.2155 -116716.6061 300.4285 -108.6560 -25.7392 499762.6462 -0.8829 -0.7018
ENERGY: 25000 1615.2132 2393.7248 3176.4256 0.0000 -175963.8553 20306.3351 302.4584 0.0000 30675.3774 -117494.3209 298.2476 -148169.6983 -117450.8703 298.8371 -70.6013 -32.8787 500179.1029 8.2575 8.1781
TCL: Setting parameter constraintScaling to 0.3125
TCL: Running for 5000 steps
ETITLE: TS BOND ANGLE DIHED IMPRP ELECT VDW BOUNDARY MISC KINETIC TOTAL TEMP POTENTIAL TOTAL3 TEMPAVG PRESSURE GPRESSURE VOLUME PRESSAVG GPRESSAVG
ENERGY: 25000 1615.2132 2393.7248 3176.4256 0.0000 -175963.8553 20306.3351 151.2292 0.0000 30673.3155 -117647.6120 298.2276 -148320.9275 -117603.6049 298.2276 -74.2632 -33.5945 500179.1029 -74.2632 -33.5945
ENERGY: 26000 1643.5620 2392.8618 3232.6010 0.0000 -175813.8934 20069.5611 254.4722 0.0000 30729.1760 -117491.6593 298.7707 -148220.8353 -117443.6903 298.9879 -42.8384 -19.5339 498347.4610 -6.4627 -6.5064
ENERGY: 27000 1635.5959 2378.9473 3195.5312 0.0000 -176017.1176 20121.1665 252.6408 0.0000 30788.0557 -117645.1802 299.3432 -148433.2359 -117595.3520 299.3385 -43.0055 -47.7267 498646.7324 5.0007 5.3520
ENERGY: 28000 1634.5203 2386.1182 3205.3134 0.0000 -176131.9475 20043.0820 246.8934 0.0000 30848.9437 -117767.0765 299.9352 -148616.0202 -117725.5207 299.7656 28.4348 0.3314 498231.4709 2.8563 3.2652
ENERGY: 29000 1638.2903 2399.4762 3212.4659 0.0000 -175662.4022 20079.8863 246.0045 0.0000 30794.6126 -117291.6665 299.4069 -148086.2790 -117249.6367 300.6508 -29.2098 5.5428 497542.6584 -1.6673 -1.9834
ENERGY: 30000 1623.8466 2404.8481 3197.4858 0.0000 -175621.2687 19981.9466 262.4546 0.0000 30928.9804 -117221.7067 300.7133 -148150.6871 -117174.4464 300.6126 -129.5874 -56.0662 498065.8919 9.5924 9.6118
TCL: Setting parameter constraintScaling to 0.15625
TCL: Running for 5000 steps
ETITLE: TS BOND ANGLE DIHED IMPRP ELECT VDW BOUNDARY MISC KINETIC TOTAL TEMP POTENTIAL TOTAL3 TEMPAVG PRESSURE GPRESSURE VOLUME PRESSAVG GPRESSAVG
ENERGY: 30000 1623.8466 2404.8481 3197.4858 0.0000 -175621.2687 19981.9466 131.2273 0.0000 30926.9537 -117354.9606 300.6936 -148281.9144 -117308.7565 300.6936 -142.0109 -61.4841 498065.8919 -142.0109 -61.4841
ENERGY: 31000 1565.9226 2451.9518 3185.9605 0.0000 -175651.1150 20041.0317 187.9145 0.0000 30901.2367 -117317.0972 300.4436 -148218.3339 -117277.2831 299.6189 106.7856 100.7035 497295.1289 -15.6769 -15.3461
ENERGY: 32000 1610.9938 2428.3349 3210.9437 0.0000 -175918.0336 20098.4893 199.6072 0.0000 30884.7044 -117484.9604 300.2829 -148369.6648 -117428.8726 299.5061 -61.8640 28.6846 499057.7289 -4.2403 -3.7340
ENERGY: 33000 1640.8401 2447.1156 3171.9916 0.0000 -175569.2703 20028.2836 192.1821 0.0000 30966.7941 -117122.0630 301.0810 -148088.8572 -117087.4345 299.9666 -1.3138 50.9952 497477.1641 7.9053 7.1810
ENERGY: 34000 1599.6185 2470.3666 3223.6964 0.0000 -175991.6711 20033.6826 215.1152 0.0000 31129.8493 -117319.3426 302.6663 -148449.1919 -117274.6170 300.1680 -57.7223 46.5728 498171.7578 5.0425 4.9764
ENERGY: 35000 1574.4190 2445.1065 3221.1980 0.0000 -175752.2706 20020.4908 201.1220 0.0000 30915.4526 -117374.4816 300.5818 -148289.9342 -117321.3825 300.5015 -53.6638 -44.6250 497550.4853 1.8542 1.6171
TCL: Setting parameter constraintScaling to 0.078125
TCL: Running for 5000 steps
ETITLE: TS BOND ANGLE DIHED IMPRP ELECT VDW BOUNDARY MISC KINETIC TOTAL TEMP POTENTIAL TOTAL3 TEMPAVG PRESSURE GPRESSURE VOLUME PRESSAVG GPRESSAVG
ENERGY: 35000 1574.4190 2445.1065 3221.1980 0.0000 -175752.2706 20020.4908 100.5610 0.0000 30913.3791 -117477.1161 300.5617 -148390.4952 -117434.5140 300.5617 -55.9114 -45.4117 497550.4853 -55.9114 -45.4117
ENERGY: 36000 1612.8497 2433.5212 3216.2134 0.0000 -175943.6214 20074.8501 157.7254 0.0000 30887.7794 -117560.6821 300.3128 -148448.4615 -117513.1354 299.5511 -102.4756 -4.7004 496966.7485 2.9014 2.7399
ENERGY: 37000 1626.9577 2356.7415 3216.7872 0.0000 -175782.7987 19899.6724 157.4249 0.0000 30907.1010 -117618.1140 300.5006 -148525.2149 -117567.2908 299.7323 -116.8456 -5.5969 495849.2025 2.9415 3.2355
ENERGY: 38000 1617.9123 2425.8233 3212.0867 0.0000 -176144.5482 20034.3045 161.5306 0.0000 30875.9268 -117816.9640 300.1975 -148692.8908 -117763.1873 300.2592 -19.7724 90.9871 496011.7939 0.5413 0.2180
ENERGY: 39000 1586.9745 2384.7344 3214.0726 0.0000 -176273.9034 20067.3838 163.3462 0.0000 30843.7205 -118013.6715 299.8844 -148857.3920 -117962.1457 297.9787 -269.7594 -115.5768 496359.0238 -8.9372 -8.4236
ENERGY: 40000 1623.0290 2375.8766 3189.9093 0.0000 -176021.7835 20083.0349 158.8687 0.0000 30658.8970 -117932.1680 298.0874 -148591.0650 -117888.1871 298.4595 -21.1212 -21.3614 496597.9741 -8.7979 -8.4469
TCL: Setting parameter constraintScaling to 0.0390625
TCL: Running for 5000 steps
ETITLE: TS BOND ANGLE DIHED IMPRP ELECT VDW BOUNDARY MISC KINETIC TOTAL TEMP POTENTIAL TOTAL3 TEMPAVG PRESSURE GPRESSURE VOLUME PRESSAVG GPRESSAVG
ENERGY: 40000 1623.0290 2375.8766 3189.9093 0.0000 -176021.7835 20083.0349 79.4343 0.0000 30656.8379 -118013.6615 298.0674 -148670.4994 -117970.6622 298.0674 -28.0034 -29.5946 496597.9741 -28.0034 -29.5946
ENERGY: 41000 1672.5633 2360.4408 3201.0191 0.0000 -175965.8356 20126.9304 110.1104 0.0000 30832.0304 -117662.7412 299.7707 -148494.7716 -117623.5411 299.0555 -27.3474 2.8808 496598.8612 4.4406 4.0215
ENERGY: 42000 1635.5758 2448.8159 3203.8058 0.0000 -175738.7306 20027.7550 115.5045 0.0000 30896.1184 -117411.1554 300.3938 -148307.2738 -117377.1098 299.4239 -27.2306 15.1954 497061.3411 8.2282 7.9107
ENERGY: 43000 1620.1980 2379.9233 3222.0161 0.0000 -175784.5700 20083.6990 117.6825 0.0000 30893.0848 -117467.9663 300.3643 -148361.0512 -117418.9014 300.4560 -27.0361 -36.9076 497472.0701 9.8971 10.2063
ENERGY: 44000 1633.4308 2427.6662 3212.7420 0.0000 -174716.3014 19585.4866 144.6814 0.0000 31073.2662 -116639.0281 302.1162 -147712.2943 -116594.1278 302.2724 -209.7899 -122.7754 497546.5317 3.7870 4.5683
ENERGY: 45000 1586.5786 2384.7991 3192.9993 0.0000 -175542.7599 19928.8534 125.0221 0.0000 30703.6345 -117620.8730 298.5224 -148324.5074 -117574.5791 299.7976 82.4096 88.6201 497959.4014 10.2524 9.9412
TCL: Setting parameter constraintScaling to 0.01953125
TCL: Running for 5000 steps
ETITLE: TS BOND ANGLE DIHED IMPRP ELECT VDW BOUNDARY MISC KINETIC TOTAL TEMP POTENTIAL TOTAL3 TEMPAVG PRESSURE GPRESSURE VOLUME PRESSAVG GPRESSAVG
ENERGY: 45000 1586.5786 2384.7991 3192.9993 0.0000 -175542.7599 19928.8534 62.5110 0.0000 30701.5925 -117685.4260 298.5025 -148387.0185 -117638.7484 298.5025 58.5338 69.7260 497959.4014 58.5338 69.7260
ENERGY: 46000 1627.7128 2356.0741 3226.2970 0.0000 -176003.9128 19919.6278 82.7320 0.0000 30667.3418 -118124.1274 298.1695 -148791.4692 -118084.6472 298.9205 21.3786 -11.5819 496316.4842 -4.1421 -4.1428
ENERGY: 47000 1675.3393 2423.0124 3197.3417 0.0000 -176023.7254 20340.0562 85.9681 0.0000 30605.2658 -117696.7419 297.5660 -148302.0077 -117662.9421 299.1169 25.8387 59.7113 497110.0593 6.8952 6.9228
ENERGY: 48000 1657.8049 2417.2388 3240.6570 0.0000 -175772.9188 20126.5805 84.4474 0.0000 30792.7679 -117453.4222 299.3890 -148246.1901 -117404.3233 299.6452 -104.6435 -69.7407 497822.4166 5.3216 6.2494
ENERGY: 49000 1648.5580 2447.4303 3189.2005 0.0000 -175579.4247 20012.5686 89.2332 0.0000 30590.2016 -117602.2325 297.4195 -148192.4341 -117539.4308 300.6053 -3.7258 -14.2628 497475.2508 -1.2968 -1.2445
ENERGY: 50000 1637.0808 2393.6105 3187.2628 0.0000 -175998.1216 20271.3852 90.8556 0.0000 30937.2711 -117480.6558 300.7940 -148417.9268 -117437.3205 300.1692 25.3572 49.9730 498367.2575 12.7088 12.6856
TCL: Setting parameter constraintScaling to 0
TCL: Running for 5000 steps
ETITLE: TS BOND ANGLE DIHED IMPRP ELECT VDW BOUNDARY MISC KINETIC TOTAL TEMP POTENTIAL TOTAL3 TEMPAVG PRESSURE GPRESSURE VOLUME PRESSAVG GPRESSAVG
ENERGY: 50000 1637.0808 2393.6105 3187.2628 0.0000 -175998.1217 20271.3852 0.0000 0.0000 30935.2261 -117573.5564 300.7741 -148508.7824 -117533.3826 300.7741 11.8439 32.4594 498367.2575 11.8439 32.4594
ENERGY: 51000 1620.7291 2386.1953 3222.8633 0.0000 -175876.8466 20025.7563 0.0000 0.0000 30684.7185 -117936.5841 298.3385 -148621.3026 -117890.7501 299.7734 -73.9418 11.1989 496587.4816 -11.7127 -11.2602
ENERGY: 52000 1634.6057 2432.7897 3196.8832 0.0000 -176155.1626 20100.8503 0.0000 0.0000 30657.0973 -118132.9364 298.0699 -148790.0337 -118107.5716 298.9427 -78.8913 -25.6035 496497.7506 8.4760 8.6952
ENERGY: 53000 1657.4729 2437.3633 3237.9327 0.0000 -176570.9493 20339.3286 0.0000 0.0000 30676.3264 -118222.5253 298.2569 -148898.8517 -118174.2515 298.8353 57.2021 137.6134 498121.6804 7.8537 7.9593
ENERGY: 54000 1654.0098 2449.0367 3162.1763 0.0000 -176404.2378 20254.3258 0.0000 0.0000 30708.3897 -118176.2995 298.5686 -148884.6892 -118129.4426 298.3683 53.9978 9.9806 496856.2096 -3.8482 -3.9762
ENERGY: 55000 1643.9845 2479.1089 3190.3455 0.0000 -176200.9720 20099.0204 0.0000 0.0000 30715.6763 -118072.8364 298.6395 -148788.5128 -118028.9967 298.5605 -95.1586 -46.8576 496494.4173 3.3741 3.1359
