Info: SIMULATION PARAMETERS:
Info: TIMESTEP               2
Info: NUMBER OF STEPS        0
Info: STEPS PER CYCLE        10
Info: PERIODIC CELL BASIS 1  72.449 0 0
Info: PERIODIC CELL BASIS 2  0 93.247 0
Info: PERIODIC CELL BASIS 3  0 0 79.185
Info: PERIODIC CELL CENTER   -0.248 -0.156 -0.047
Info: WRAPPING WATERS AROUND PERIODIC BOUNDARIES ON OUTPUT.
Info: WRAPPING ALL CLUSTERS AROUND PERIODIC BOUNDARIES ON OUTPUT.
Info: FIRST LDB TIMESTEP     50
Info: LAST LDB TIMESTEP     -1
Info: HOM BACKGROUND SCALING 1
Info: PME BACKGROUND SCALING 1
Info: MIN ATOMS PER PATCH    40
Info: INITIAL TEMPERATURE    0
Info: CENTER OF MASS MOVING INITIALLY? NO
Info: DIELECTRIC             1
Info: EXCLUDE                SCALED ONE-FOUR
Info: 1-4 ELECTROSTATICS SCALED BY 0.833333
Info: MODIFIED 1-4 VDW PARAMETERS WILL BE USED
Info: NO DCD TRAJECTORY OUTPUT
Info: NO EXTENDED SYSTEM TRAJECTORY OUTPUT
Info: NO VELOCITY DCD OUTPUT
Info: NO FORCE DCD OUTPUT
Info: OUTPUT FILENAME        ../replicas/rep15/equilibration/eq0
Info: NO RESTART FILE
Info: SWITCHING ACTIVE
Info: SWITCHING ON           10
Info: SWITCHING OFF          12
Info: PAIRLIST DISTANCE      13.5
Info: PAIRLIST SHRINK RATE   0.01
Info: PAIRLIST GROW RATE     0.01
Info: PAIRLIST TRIGGER       0.3
Info: PAIRLISTS PER CYCLE    2
Info: PAIRLISTS ENABLED
Info: MARGIN                 0
Info: HYDROGEN GROUP CUTOFF  2.5
Info: PATCH DIMENSION        16
Info: ENERGY OUTPUT STEPS    500
Info: CROSSTERM ENERGY INCLUDED IN DIHEDRAL
Info: TIMING OUTPUT STEPS    5000
Info: PRESSURE OUTPUT STEPS  500
Info: HARMONIC CONSTRAINTS ACTIVE
Info: HARMONIC CONS EXP      2
Info: HARMONIC CONS SCALING  10
Info: CONJUGATE GRADIENT MINIMIZATION ACTIVE
Info: LINE MINIMIZATION GOAL = 0.001
Info: BABY STEP SIZE = 0.01
Info: TINY STEP SIZE = 1e-06
Info: PARTICLE MESH EWALD (PME) ACTIVE
Info: PME TOLERANCE               1e-06
Info: PME EWALD COEFFICIENT       0.257952
Info: PME INTERPOLATION ORDER     4
Info: PME GRID DIMENSIONS         80 96 80
Info: PME MAXIMUM GRID SPACING    1
Info: FULL ELECTROSTATIC EVALUATION FREQUENCY      2
Info: USING VERLET I (r-RESPA) MTS SCHEME.
Info: C1 SPLITTING OF LONG RANGE ELECTROSTATICS
Info: PLACING ATOMS IN PATCHES BY HYDROGEN GROUPS
Info: RIGID BONDS TO HYDROGEN : ALL
Info:         ERROR TOLERANCE : 1e-05
Info:          MAX ITERATIONS : 100
Info: RIGID WATER USING SETTLE ALGORITHM
Info: RANDOM NUMBER SEED     1503260222
Info: USE HYDROGEN BONDS?    NO
Info: Using AMBER format force field!
Info: AMBER PARM FILE        ../build/complex.top
Info: COORDINATE PDB         ../build/complex.pdb
Info: Exclusions in PARM file will be ignored!
Info: SCNB (VDW SCALING)     2
Info: USING ARITHMETIC MEAN TO COMBINE L-J SIGMA PARAMETERS
Info: SUMMARY OF PARAMETERS:
Info: 71 BONDS
Info: 145 ANGLES
Info: 76 DIHEDRAL
Info: 0 IMPROPER
Info: 0 CROSSTERM
Info: 0 VDW
Info: 190 VDW_PAIRS
Info: 0 NBTHOLE_PAIRS
Info: STRUCTURE SUMMARY:
Info: 49394 ATOMS
Info: 49448 BONDS
Info: 8698 ANGLES
Info: 18780 DIHEDRALS
Info: 0 IMPROPERS
Info: 0 CROSSTERMS
Info: 0 EXCLUSIONS
Info: 2336 CONSTRAINTS
Info: 47058 RIGID BONDS
Info: 101124 DEGREES OF FREEDOM
Info: 17225 HYDROGEN GROUPS
Info: 4 ATOMS IN LARGEST HYDROGEN GROUP
Info: 17225 MIGRATION GROUPS
Info: 4 ATOMS IN LARGEST MIGRATION GROUP
Info: TOTAL MASS = 301478 amu
Info: TOTAL CHARGE = 1.00115e-05 e
Info: MASS DENSITY = 0.935846 g/cm^3
Info: ATOM DENSITY = 0.0923345 atoms/A^3
Info: ADDED 70656 IMPLICIT EXCLUSIONS
Info: NONBONDED TABLE R-SQUARED SPACING: 0.0625
Info: NONBONDED TABLE SIZE: 769 POINTS
Info: REMOVING COM VELOCITY 0 0 0
TCL: Minimizing for 100 steps
ETITLE: TS BOND ANGLE DIHED IMPRP ELECT VDW BOUNDARY MISC KINETIC TOTAL TEMP POTENTIAL TOTAL3 TEMPAVG PRESSURE GPRESSURE VOLUME PRESSAVG GPRESSAVG
ENERGY: 0 155.4176 1012.2698 2855.7272 0.0000 -154496.7912 207729.2052 0.0468 0.0000 0.0000 57255.8754 0.0000 57255.8754 57255.8754 0.0000 116350.2532 86546.1670 534946.2959 116350.2532 86546.1670
ENERGY: 20 304.7563 935.7913 2893.4663 0.0000 -158672.9414 17936.6589 143.9455 0.0000 0.0000 -136458.3231 0.0000 -136458.3231 -136458.3231 0.0000 16523.9382 -239.4564 534946.2959 16523.9382 -239.4564
ENERGY: 40 198.7456 799.5729 2896.9273 0.0000 -162811.4520 16417.9540 221.3030 0.0000 0.0000 -142276.9492 0.0000 -142276.9492 -142276.9492 0.0000 15011.2706 -2135.4694 534946.2959 15011.2706 -2135.4694
ENERGY: 60 130.5282 715.3440 2898.2166 0.0000 -167496.1567 15446.7539 315.2796 0.0000 0.0000 -147990.0344 0.0000 -147990.0344 -147990.0344 0.0000 13793.8837 -3799.3986 534946.2959 13793.8837 -3799.3986
ENERGY: 80 431.2715 765.6304 2904.3787 0.0000 -169937.5308 15121.1522 372.0123 0.0000 0.0000 -150343.0857 0.0000 -150343.0857 -150343.0857 0.0000 13270.3304 -4577.2449 534946.2959 13270.3304 -4577.2449
ENERGY: 100 119.3851 710.0600 2905.2591 0.0000 -171259.7131 14991.7869 387.3614 0.0000 0.0000 -152145.8606 0.0000 -152145.8606 -152145.8606 0.0000 13056.2652 -4908.1724 534946.2959 13056.2652 -4908.1724
TCL: Setting parameter constraintScaling to 5.0
TCL: Minimizing for 100 steps
ETITLE: TS BOND ANGLE DIHED IMPRP ELECT VDW BOUNDARY MISC KINETIC TOTAL TEMP POTENTIAL TOTAL3 TEMPAVG PRESSURE GPRESSURE VOLUME PRESSAVG GPRESSAVG
ENERGY: 100 119.3851 710.0600 2905.2591 0.0000 -171259.7131 14991.7869 193.6807 0.0000 0.0000 -152339.5413 0.0000 -152339.5413 -152339.5413 0.0000 13672.7714 -23021.8187 534946.2959 13672.7714 -23021.8187
ENERGY: 120 108.8834 687.5844 2912.9267 0.0000 -172865.8876 14798.2705 281.1919 0.0000 0.0000 -154077.0308 0.0000 -154077.0308 -154077.0308 0.0000 13218.2538 -4906.0181 534946.2959 13218.2538 -4906.0181
ENERGY: 140 309.4337 708.8691 2913.8025 0.0000 -174236.6488 14731.4826 326.6386 0.0000 0.0000 -155246.4223 0.0000 -155246.4223 -155246.4223 0.0000 12971.5294 -5303.2379 534946.2959 12971.5294 -5303.2379
ENERGY: 160 265.1919 683.1028 2923.1715 0.0000 -176275.0329 14757.3183 382.8778 0.0000 0.0000 -157263.3706 0.0000 -157263.3706 -157263.3706 0.0000 12740.9972 -5742.3854 534946.2959 12740.9972 -5742.3854
ENERGY: 180 268.9203 744.0947 2928.5661 0.0000 -178995.1146 15023.4653 473.2869 0.0000 0.0000 -159556.7812 0.0000 -159556.7812 -159556.7812 0.0000 12521.6195 -6223.3913 534946.2959 12521.6195 -6223.3913
ENERGY: 200 238.8747 694.0957 2941.3610 0.0000 -181556.1179 15587.0168 546.2632 0.0000 0.0000 -161548.5066 0.0000 -161548.5066 -161548.5066 0.0000 12582.6425 -6430.9865 534946.2959 12582.6425 -6430.9865
TCL: Setting parameter constraintScaling to 2.5
TCL: Minimizing for 100 steps
ETITLE: TS BOND ANGLE DIHED IMPRP ELECT VDW BOUNDARY MISC KINETIC TOTAL TEMP POTENTIAL TOTAL3 TEMPAVG PRESSURE GPRESSURE VOLUME PRESSAVG GPRESSAVG
ENERGY: 200 238.8747 694.0957 2941.3610 0.0000 -181556.1179 15587.0168 273.1316 0.0000 0.0000 -161821.6381 0.0000 -161821.6381 -161821.6381 0.0000 13229.5463 -25661.7798 534946.2959 13229.5463 -25661.7798
ENERGY: 220 251.1258 679.9747 2933.0268 0.0000 -182082.9500 15470.8399 338.6087 0.0000 0.0000 -162409.3741 0.0000 -162409.3741 -162409.3741 0.0000 12967.8091 -6101.3375 534946.2959 12967.8091 -6101.3375
ENERGY: 240 139.2773 665.8156 2928.5997 0.0000 -182462.5851 15494.1811 343.6042 0.0000 0.0000 -162891.1072 0.0000 -162891.1072 -162891.1072 0.0000 13034.2745 -6114.1942 534946.2959 13034.2745 -6114.1942
ENERGY: 260 164.7058 683.7483 2921.6189 0.0000 -183940.9722 15800.2206 385.4401 0.0000 0.0000 -163985.2386 0.0000 -163985.2386 -163985.2386 0.0000 13031.8481 -6252.6429 534946.2959 13031.8481 -6252.6429
ENERGY: 280 169.0350 700.9117 2917.6058 0.0000 -185423.3426 16229.1294 454.8177 0.0000 0.0000 -164951.8430 0.0000 -164951.8430 -164951.8430 0.0000 13143.6757 -6344.6969 534946.2959 13143.6757 -6344.6969
ENERGY: 300 126.6723 639.5502 2916.2543 0.0000 -186095.4531 16446.1554 481.3783 0.0000 0.0000 -165485.4426 0.0000 -165485.4426 -165485.4426 0.0000 13207.9101 -6348.9343 534946.2959 13207.9101 -6348.9343
TCL: Setting parameter constraintScaling to 1.25
TCL: Minimizing for 100 steps
ETITLE: TS BOND ANGLE DIHED IMPRP ELECT VDW BOUNDARY MISC KINETIC TOTAL TEMP POTENTIAL TOTAL3 TEMPAVG PRESSURE GPRESSURE VOLUME PRESSAVG GPRESSAVG
ENERGY: 300 126.6723 639.5502 2916.2543 0.0000 -186095.4531 16446.1554 240.6892 0.0000 0.0000 -165726.1318 0.0000 -165726.1318 -165726.1318 0.0000 13656.2623 -26359.0078 534946.2959 13656.2623 -26359.0078
ENERGY: 320 132.0120 624.5837 2911.1544 0.0000 -186666.6617 16580.1434 272.7598 0.0000 0.0000 -166146.0083 0.0000 -166146.0083 -166146.0083 0.0000 13629.7435 -5980.4613 534946.2959 13629.7435 -5980.4613
ENERGY: 340 152.3978 625.3000 2910.6981 0.0000 -187382.6592 16812.9626 296.3025 0.0000 0.0000 -166584.9982 0.0000 -166584.9982 -166584.9982 0.0000 13647.3936 -6018.2159 534946.2959 13647.3936 -6018.2159
ENERGY: 360 137.4349 652.8671 2904.2862 0.0000 -189058.7202 17389.4392 360.8150 0.0000 0.0000 -167613.8777 0.0000 -167613.8777 -167613.8777 0.0000 13896.6306 -5994.4860 534946.2959 13896.6306 -5994.4860
ENERGY: 380 179.6718 658.8326 2901.8711 0.0000 -189868.5383 17708.6103 380.1641 0.0000 0.0000 -168039.3883 0.0000 -168039.3883 -168039.3883 0.0000 13966.9086 -5995.0968 534946.2959 13966.9086 -5995.0968
ENERGY: 400 139.0185 633.1334 2899.7630 0.0000 -190441.3090 17915.3968 393.6422 0.0000 0.0000 -168460.3552 0.0000 -168460.3552 -168460.3552 0.0000 14116.3462 -5930.8331 534946.2959 14116.3462 -5930.8331
TCL: Setting parameter constraintScaling to 0.625
TCL: Minimizing for 100 steps
ETITLE: TS BOND ANGLE DIHED IMPRP ELECT VDW BOUNDARY MISC KINETIC TOTAL TEMP POTENTIAL TOTAL3 TEMPAVG PRESSURE GPRESSURE VOLUME PRESSAVG GPRESSAVG
ENERGY: 400 139.0185 633.1334 2899.7630 0.0000 -190441.3090 17915.3968 196.8211 0.0000 0.0000 -168657.1763 0.0000 -168657.1763 -168657.1763 0.0000 14414.0549 -26616.6559 534946.2959 14414.0549 -26616.6559
ENERGY: 420 148.5425 626.9763 2895.4516 0.0000 -190846.9621 18009.8671 218.4112 0.0000 0.0000 -168947.7133 0.0000 -168947.7133 -168947.7133 0.0000 14346.9943 -5728.3493 534946.2959 14346.9943 -5728.3493
ENERGY: 440 145.6342 625.0290 2892.8820 0.0000 -191360.1414 18172.5001 233.3788 0.0000 0.0000 -169290.7172 0.0000 -169290.7172 -169290.7172 0.0000 14374.5645 -5748.5395 534946.2959 14374.5645 -5748.5395
ENERGY: 460 369.2461 674.4936 2888.7346 0.0000 -192510.2394 18570.4244 268.9999 0.0000 0.0000 -169738.3408 0.0000 -169738.3408 -169738.3408 0.0000 14581.2954 -5713.1365 534946.2959 14581.2954 -5713.1365
ENERGY: 480 142.3961 642.7408 2881.0263 0.0000 -193433.5793 18935.3039 294.5956 0.0000 0.0000 -170537.5167 0.0000 -170537.5167 -170537.5167 0.0000 14732.1193 -5656.7458 534946.2959 14732.1193 -5656.7458
ENERGY: 500 174.8315 638.4116 2883.2107 0.0000 -194030.7229 19169.2440 303.9100 0.0000 0.0000 -170861.1152 0.0000 -170861.1152 -170861.1152 0.0000 14765.4279 -5656.8800 534946.2959 14765.4279 -5656.8800
TCL: Setting parameter constraintScaling to 0.3125
TCL: Minimizing for 100 steps
ETITLE: TS BOND ANGLE DIHED IMPRP ELECT VDW BOUNDARY MISC KINETIC TOTAL TEMP POTENTIAL TOTAL3 TEMPAVG PRESSURE GPRESSURE VOLUME PRESSAVG GPRESSAVG
ENERGY: 500 174.8315 638.4116 2883.2107 0.0000 -194030.7229 19169.2440 151.9550 0.0000 0.0000 -171013.0702 0.0000 -171013.0702 -171013.0702 0.0000 14960.4160 -26914.0850 534946.2959 14960.4160 -26914.0850
ENERGY: 520 157.6429 640.8346 2876.3758 0.0000 -194381.1255 19286.0978 163.1041 0.0000 0.0000 -171257.0703 0.0000 -171257.0703 -171257.0703 0.0000 15007.1931 -5455.8511 534946.2959 15007.1931 -5455.8511
ENERGY: 540 181.6661 661.4038 2874.4607 0.0000 -194897.9294 19466.2894 178.5503 0.0000 0.0000 -171535.5591 0.0000 -171535.5591 -171535.5591 0.0000 15115.5443 -5429.7152 534946.2959 15115.5443 -5429.7152
ENERGY: 560 171.1238 645.4290 2871.8287 0.0000 -195742.6036 19786.2847 200.1496 0.0000 0.0000 -172067.7878 0.0000 -172067.7878 -172067.7878 0.0000 15179.3998 -5431.0547 534946.2959 15179.3998 -5431.0547
ENERGY: 580 287.5813 676.3839 2868.8240 0.0000 -196728.6128 20185.4006 220.8021 0.0000 0.0000 -172489.6209 0.0000 -172489.6209 -172489.6209 0.0000 15369.6922 -5356.7990 534946.2959 15369.6922 -5356.7990
ENERGY: 600 198.5354 680.9091 2872.1344 0.0000 -196949.6795 20267.7171 223.6150 0.0000 0.0000 -172706.7685 0.0000 -172706.7685 -172706.7685 0.0000 15389.8781 -5366.0897 534946.2959 15389.8781 -5366.0897
TCL: Setting parameter constraintScaling to 0.15625
TCL: Minimizing for 100 steps
ETITLE: TS BOND ANGLE DIHED IMPRP ELECT VDW BOUNDARY MISC KINETIC TOTAL TEMP POTENTIAL TOTAL3 TEMPAVG PRESSURE GPRESSURE VOLUME PRESSAVG GPRESSAVG
ENERGY: 600 198.5354 680.9091 2872.1344 0.0000 -196949.6795 20267.7171 111.8075 0.0000 0.0000 -172818.5759 0.0000 -172818.5759 -172818.5759 0.0000 15512.1592 -27051.2944 534946.2959 15512.1592 -27051.2944
ENERGY: 620 195.8077 678.6840 2864.1617 0.0000 -197359.6176 20422.4351 118.1522 0.0000 0.0000 -173080.3769 0.0000 -173080.3769 -173080.3769 0.0000 15554.4585 -5232.1861 534946.2959 15554.4585 -5232.1861
ENERGY: 640 368.2418 716.9339 2869.9517 0.0000 -197842.9961 20582.1780 125.8838 0.0000 0.0000 -173179.8070 0.0000 -173179.8070 -173179.8070 0.0000 15595.0663 -5255.8090 534946.2959 15595.0663 -5255.8090
ENERGY: 660 155.5674 646.4247 2855.9475 0.0000 -198303.4309 20756.0396 130.9185 0.0000 0.0000 -173758.5331 0.0000 -173758.5331 -173758.5331 0.0000 15764.0408 -5158.3732 534946.2959 15764.0408 -5158.3732
ENERGY: 680 231.9562 703.0897 2862.7709 0.0000 -198658.4343 20897.9634 137.1701 0.0000 0.0000 -173825.4840 0.0000 -173825.4840 -173825.4840 0.0000 15737.5925 -5196.5208 534946.2959 15737.5925 -5196.5208
ENERGY: 700 194.9627 710.3719 2853.3329 0.0000 -199813.3088 21327.7598 153.2085 0.0000 0.0000 -174573.6730 0.0000 -174573.6730 -174573.6730 0.0000 16064.3315 -5061.0540 534946.2959 16064.3315 -5061.0540
TCL: Setting parameter constraintScaling to 0.078125
TCL: Minimizing for 100 steps
ETITLE: TS BOND ANGLE DIHED IMPRP ELECT VDW BOUNDARY MISC KINETIC TOTAL TEMP POTENTIAL TOTAL3 TEMPAVG PRESSURE GPRESSURE VOLUME PRESSAVG GPRESSAVG
ENERGY: 700 194.9627 710.3719 2853.3329 0.0000 -199813.3088 21327.7598 76.6043 0.0000 0.0000 -174650.2773 0.0000 -174650.2773 -174650.2773 0.0000 16138.5694 -27099.8675 534946.2959 16138.5694 -27099.8675
ENERGY: 720 162.5331 638.0470 2843.3008 0.0000 -199882.9091 21357.1649 76.2006 0.0000 0.0000 -174805.6626 0.0000 -174805.6626 -174805.6626 0.0000 16078.5477 -5012.7945 534946.2959 16078.5477 -5012.7945
ENERGY: 740 170.6631 653.6720 2843.2196 0.0000 -200347.6115 21534.3982 80.6483 0.0000 0.0000 -175065.0102 0.0000 -175065.0102 -175065.0102 0.0000 16201.0869 -4965.8213 534946.2959 16201.0869 -4965.8213
ENERGY: 760 166.2071 657.0014 2836.9071 0.0000 -200848.7144 21703.5909 86.6479 0.0000 0.0000 -175398.3600 0.0000 -175398.3600 -175398.3600 0.0000 16252.4666 -4967.0635 534946.2959 16252.4666 -4967.0635
ENERGY: 780 164.6730 656.6847 2840.3345 0.0000 -201073.9789 21803.5174 86.7016 0.0000 0.0000 -175522.0678 0.0000 -175522.0678 -175522.0678 0.0000 16316.2726 -4922.5164 534946.2959 16316.2726 -4922.5164
ENERGY: 800 208.9877 700.9770 2842.1692 0.0000 -201869.5923 22128.3239 92.8264 0.0000 0.0000 -175896.3081 0.0000 -175896.3081 -175896.3081 0.0000 16536.9450 -4825.8166 534946.2959 16536.9450 -4825.8166
TCL: Setting parameter constraintScaling to 0.0390625
TCL: Minimizing for 100 steps
ETITLE: TS BOND ANGLE DIHED IMPRP ELECT VDW BOUNDARY MISC KINETIC TOTAL TEMP POTENTIAL TOTAL3 TEMPAVG PRESSURE GPRESSURE VOLUME PRESSAVG GPRESSAVG
ENERGY: 800 208.9877 700.9770 2842.1692 0.0000 -201869.5923 22128.3239 46.4132 0.0000 0.0000 -175942.7213 0.0000 -175942.7213 -175942.7213 0.0000 16578.6652 -27166.0215 534946.2959 16578.6652 -27166.0215
ENERGY: 820 197.5013 695.6583 2831.3933 0.0000 -202226.1654 22253.1764 49.4278 0.0000 0.0000 -176199.0083 0.0000 -176199.0083 -176199.0083 0.0000 16569.1329 -4827.9296 534946.2959 16569.1329 -4827.9296
ENERGY: 840 169.0753 661.5633 2827.5039 0.0000 -202288.9386 22272.5640 49.6633 0.0000 0.0000 -176308.5688 0.0000 -176308.5688 -176308.5688 0.0000 16578.3455 -4814.7058 534946.2959 16578.3455 -4814.7058
ENERGY: 860 164.1401 648.4562 2827.4745 0.0000 -202400.0782 22314.7413 49.7982 0.0000 0.0000 -176395.4680 0.0000 -176395.4680 -176395.4680 0.0000 16616.3751 -4785.9623 534946.2959 16616.3751 -4785.9623
ENERGY: 880 191.3860 673.4712 2825.6831 0.0000 -203229.3226 22655.0455 54.7403 0.0000 0.0000 -176828.9964 0.0000 -176828.9964 -176828.9964 0.0000 16732.6746 -4752.0011 534946.2959 16732.6746 -4752.0011
ENERGY: 900 172.9472 663.8507 2819.0545 0.0000 -203959.2551 23002.1998 58.1924 0.0000 0.0000 -177243.0105 0.0000 -177243.0105 -177243.0105 0.0000 16966.9866 -4628.9508 534946.2959 16966.9866 -4628.9508
TCL: Setting parameter constraintScaling to 0.01953125
TCL: Minimizing for 100 steps
ETITLE: TS BOND ANGLE DIHED IMPRP ELECT VDW BOUNDARY MISC KINETIC TOTAL TEMP POTENTIAL TOTAL3 TEMPAVG PRESSURE GPRESSURE VOLUME PRESSAVG GPRESSAVG
ENERGY: 900 172.9472 663.8507 2819.0545 0.0000 -203959.2551 23002.1998 29.0962 0.0000 0.0000 -177272.1067 0.0000 -177272.1067 -177272.1067 0.0000 16991.0682 -27250.9431 534946.2959 16991.0682 -27250.9431
ENERGY: 920 165.1233 652.8047 2816.7734 0.0000 -204074.5551 23032.0941 29.5539 0.0000 0.0000 -177378.2059 0.0000 -177378.2059 -177378.2059 0.0000 17003.1800 -4603.3983 534946.2959 17003.1800 -4603.3983
ENERGY: 940 287.1721 674.2651 2816.6872 0.0000 -204370.5761 23157.9944 30.5574 0.0000 0.0000 -177403.8999 0.0000 -177403.8999 -177403.8999 0.0000 17011.8097 -4626.5001 534946.2959 17011.8097 -4626.5001
ENERGY: 960 162.3985 653.9471 2813.1402 0.0000 -204497.7826 23211.6772 30.8742 0.0000 0.0000 -177625.7454 0.0000 -177625.7454 -177625.7454 0.0000 17086.7490 -4565.4703 534946.2959 17086.7490 -4565.4703
ENERGY: 980 176.4741 656.8206 2815.8699 0.0000 -204735.3042 23316.6584 31.4092 0.0000 0.0000 -177738.0720 0.0000 -177738.0720 -177738.0720 0.0000 17123.1199 -4546.2249 534946.2959 17123.1199 -4546.2249
ENERGY: 1000 163.3517 652.0881 2812.8649 0.0000 -205103.9182 23485.1633 32.3969 0.0000 0.0000 -177958.0533 0.0000 -177958.0533 -177958.0533 0.0000 17231.6699 -4490.4572 534946.2959 17231.6699 -4490.4572
TCL: Setting parameter constraintScaling to 0
TCL: Minimizing for 5000 steps
ETITLE: TS BOND ANGLE DIHED IMPRP ELECT VDW BOUNDARY MISC KINETIC TOTAL TEMP POTENTIAL TOTAL3 TEMPAVG PRESSURE GPRESSURE VOLUME PRESSAVG GPRESSAVG
ENERGY: 1000 163.3517 652.0881 2812.8649 0.0000 -205103.9182 23485.1633 0.0000 0.0000 0.0000 -177990.4502 0.0000 -177990.4502 -177990.4502 0.0000 17257.6059 -27258.0034 534946.2959 17257.6059 -27258.0034
ENERGY: 2000 171.2036 665.7492 2805.3473 0.0000 -214568.0952 27924.5054 0.0000 0.0000 0.0000 -183001.2897 0.0000 -183001.2897 -183001.2897 0.0000 19633.7979 -3152.6373 534946.2959 19633.7979 -3152.6373
ENERGY: 3000 168.7208 667.9756 2795.5282 0.0000 -217508.7452 28903.1680 0.0000 0.0000 0.0000 -184973.3526 0.0000 -184973.3526 -184973.3526 0.0000 20110.7606 -2981.9027 534946.2959 20110.7606 -2981.9027
ENERGY: 4000 166.8658 663.8857 2790.6698 0.0000 -218693.6156 29378.4768 0.0000 0.0000 0.0000 -185693.7175 0.0000 -185693.7175 -185693.7175 0.0000 20372.7942 -2838.6634 534946.2959 20372.7942 -2838.6634
ENERGY: 5000 165.6656 664.7808 2788.9684 0.0000 -219346.3459 29646.7491 0.0000 0.0000 0.0000 -186080.1821 0.0000 -186080.1821 -186080.1821 0.0000 20517.3687 -2765.3219 534946.2959 20517.3687 -2765.3219
ENERGY: 6000 165.3058 663.3216 2787.5833 0.0000 -219704.0883 29745.4955 0.0000 0.0000 0.0000 -186342.3821 0.0000 -186342.3821 -186342.3821 0.0000 20561.2015 -2750.6631 534946.2959 20561.2015 -2750.6631
