Info: SIMULATION PARAMETERS:
Info: TIMESTEP               1
Info: NUMBER OF STEPS        0
Info: STEPS PER CYCLE        10
Info: PERIODIC CELL BASIS 1  72.449 0 0
Info: PERIODIC CELL BASIS 2  0 93.247 0
Info: PERIODIC CELL BASIS 3  0 0 79.185
Info: PERIODIC CELL CENTER   -0.248 -0.156 -0.047
Info: WRAPPING WATERS AROUND PERIODIC BOUNDARIES ON OUTPUT.
Info: WRAPPING ALL CLUSTERS AROUND PERIODIC BOUNDARIES ON OUTPUT.
Info: FIRST LDB TIMESTEP     50
Info: LAST LDB TIMESTEP     -1
Info: HOM BACKGROUND SCALING 1
Info: PME BACKGROUND SCALING 1
Info: MIN ATOMS PER PATCH    40
Info: VELOCITY FILE          ../replicas/rep58/equilibration/eq1.vel
Info: CENTER OF MASS MOVING INITIALLY? NO
Info: DIELECTRIC             1
Info: EXCLUDE                SCALED ONE-FOUR
Info: 1-4 ELECTROSTATICS SCALED BY 0.833333
Info: MODIFIED 1-4 VDW PARAMETERS WILL BE USED
Info: DCD FILENAME           ../replicas/rep58/equilibration/eq2.dcd
Info: DCD FREQUENCY          5000
Info: DCD FIRST STEP         5000
Info: DCD FILE WILL CONTAIN UNIT CELL DATA
Info: XST FILENAME           ../replicas/rep58/equilibration/eq2.xst
Info: XST FREQUENCY          5000
Info: NO VELOCITY DCD OUTPUT
Info: NO FORCE DCD OUTPUT
Info: OUTPUT FILENAME        ../replicas/rep58/equilibration/eq2
Info: RESTART FILENAME       ../replicas/rep58/equilibration/eq2.restart
Info: RESTART FREQUENCY      5000
Info: BINARY RESTART FILES WILL BE USED
Info: SWITCHING ACTIVE
Info: SWITCHING ON           10
Info: SWITCHING OFF          12
Info: PAIRLIST DISTANCE      13.5
Info: PAIRLIST SHRINK RATE   0.01
Info: PAIRLIST GROW RATE     0.01
Info: PAIRLIST TRIGGER       0.3
Info: PAIRLISTS PER CYCLE    2
Info: PAIRLISTS ENABLED
Info: MARGIN                 0.48
Info: HYDROGEN GROUP CUTOFF  2.5
Info: PATCH DIMENSION        16.48
Info: ENERGY OUTPUT STEPS    500
Info: CROSSTERM ENERGY INCLUDED IN DIHEDRAL
Info: TIMING OUTPUT STEPS    5000
Info: PRESSURE OUTPUT STEPS  500
Info: HARMONIC CONSTRAINTS ACTIVE
Info: HARMONIC CONS EXP      2
Info: HARMONIC CONS SCALING  10
Info: LANGEVIN DYNAMICS ACTIVE
Info: LANGEVIN TEMPERATURE   300
Info: LANGEVIN USING BBK INTEGRATOR
Info: LANGEVIN DAMPING COEFFICIENT IS 5 INVERSE PS
Info: LANGEVIN DYNAMICS NOT APPLIED TO HYDROGENS
Info: BERENDSEN PRESSURE COUPLING ACTIVE
Info:     TARGET PRESSURE IS 1 BAR
Info:     COMPRESSIBILITY ESTIMATE IS 4.57e-05 BAR^(-1)
Info:     RELAXATION TIME IS 100 FS
Info:     APPLIED EVERY 2 STEPS
Info:     PRESSURE CONTROL IS GROUP-BASED
Info:       CELL FLUCTUATION IS ISOTROPIC
Info: PARTICLE MESH EWALD (PME) ACTIVE
Info: PME TOLERANCE               1e-06
Info: PME EWALD COEFFICIENT       0.257952
Info: PME INTERPOLATION ORDER     4
Info: PME GRID DIMENSIONS         80 96 80
Info: PME MAXIMUM GRID SPACING    1
Info: FULL ELECTROSTATIC EVALUATION FREQUENCY      2
Info: USING VERLET I (r-RESPA) MTS SCHEME.
Info: C1 SPLITTING OF LONG RANGE ELECTROSTATICS
Info: PLACING ATOMS IN PATCHES BY HYDROGEN GROUPS
Info: RIGID BONDS TO HYDROGEN : WATER
Info:         ERROR TOLERANCE : 1e-05
Info:          MAX ITERATIONS : 100
Info: RIGID WATER USING SETTLE ALGORITHM
Info: RANDOM NUMBER SEED     1503693593
Info: USE HYDROGEN BONDS?    NO
Info: Using AMBER format force field!
Info: AMBER PARM FILE        ../build/complex.top
Info: COORDINATE PDB         ../replicas/rep58/equilibration/eq1.coor
Info: Exclusions in PARM file will be ignored!
Info: SCNB (VDW SCALING)     2
Info: USING ARITHMETIC MEAN TO COMBINE L-J SIGMA PARAMETERS
Info: SUMMARY OF PARAMETERS:
Info: 71 BONDS
Info: 145 ANGLES
Info: 76 DIHEDRAL
Info: 0 IMPROPER
Info: 0 CROSSTERM
Info: 0 VDW
Info: 190 VDW_PAIRS
Info: 0 NBTHOLE_PAIRS
Info: STRUCTURE SUMMARY:
Info: 49394 ATOMS
Info: 49448 BONDS
Info: 8698 ANGLES
Info: 18780 DIHEDRALS
Info: 0 IMPROPERS
Info: 0 CROSSTERMS
Info: 0 EXCLUSIONS
Info: 2336 CONSTRAINTS
Info: 44667 RIGID BONDS
Info: 103515 DEGREES OF FREEDOM
Info: 17225 HYDROGEN GROUPS
Info: 4 ATOMS IN LARGEST HYDROGEN GROUP
Info: 17225 MIGRATION GROUPS
Info: 4 ATOMS IN LARGEST MIGRATION GROUP
Info: TOTAL MASS = 301478 amu
Info: TOTAL CHARGE = 1.00115e-05 e
Info: MASS DENSITY = 0.935846 g/cm^3
Info: ATOM DENSITY = 0.0923345 atoms/A^3
Info: ADDED 70656 IMPLICIT EXCLUSIONS
Info: NONBONDED TABLE R-SQUARED SPACING: 0.0625
Info: NONBONDED TABLE SIZE: 769 POINTS
Info: REMOVING COM VELOCITY -0.0170727 -0.00653815 0.0260485
TCL: Running for 5000 steps
ETITLE: TS BOND ANGLE DIHED IMPRP ELECT VDW BOUNDARY MISC KINETIC TOTAL TEMP POTENTIAL TOTAL3 TEMPAVG PRESSURE GPRESSURE VOLUME PRESSAVG GPRESSAVG
ENERGY: 0 377.8316 1219.7647 2910.1547 0.0000 -212481.1277 29346.2856 0.0000 0.0000 10089.1610 -168537.9301 98.0939 -178627.0911 -168528.4076 98.0939 -2456.8744 -2553.3308 534946.2959 -2456.8744 -2553.3308
ENERGY: 1000 1214.2508 1968.1713 3103.3896 0.0000 -193013.6958 26145.7596 723.8413 0.0000 24004.9341 -135853.3492 233.3929 -159858.2833 -135824.8438 218.2501 -59.1391 -9.7545 522708.2511 -2.5647 -2.1490
ENERGY: 2000 1449.9854 2146.5575 3133.2824 0.0000 -184097.5902 23207.0278 800.0588 0.0000 27853.0118 -125507.6666 270.8066 -153360.6783 -125474.0008 262.9934 -26.7555 5.9276 516384.2326 -19.6357 -19.2252
ENERGY: 3000 1547.1032 2167.9698 3110.2040 0.0000 -179171.3762 21551.8298 787.3196 0.0000 29430.8005 -120576.1493 286.1470 -150006.9498 -120536.8824 283.7845 -116.4516 -34.4615 508665.1669 -26.0202 -26.0441
ENERGY: 4000 1560.1831 2258.6500 3139.7075 0.0000 -177093.7553 20758.7978 807.8743 0.0000 30217.6078 -118350.9348 293.7969 -148568.5425 -118306.4775 292.6884 -66.1854 14.8924 506059.9051 -2.6926 -2.8127
ENERGY: 5000 1558.1431 2265.0247 3159.1439 0.0000 -176207.6055 20449.6000 818.7426 0.0000 30611.9612 -117344.9901 297.6311 -147956.9513 -117297.6422 297.7367 -51.6780 -19.8661 503897.1626 -8.9740 -9.1153
TCL: Setting parameter constraintScaling to 5.0
TCL: Running for 5000 steps
ETITLE: TS BOND ANGLE DIHED IMPRP ELECT VDW BOUNDARY MISC KINETIC TOTAL TEMP POTENTIAL TOTAL3 TEMPAVG PRESSURE GPRESSURE VOLUME PRESSAVG GPRESSAVG
ENERGY: 5000 1558.1431 2265.0247 3159.1439 0.0000 -176207.6055 20449.6000 409.3713 0.0000 30609.9080 -117756.4146 297.6111 -148366.3226 -117714.0581 297.6111 -51.8702 -18.0933 503897.1626 -51.8702 -18.0933
ENERGY: 6000 1652.1242 2258.2762 3173.6242 0.0000 -175776.9351 20364.5946 628.5405 0.0000 30683.1595 -117016.6158 298.3233 -147699.7753 -116954.4443 298.6190 -48.5534 -5.7027 502831.4856 -13.4884 -13.3909
ENERGY: 7000 1537.8682 2309.6145 3165.5754 0.0000 -175302.1667 20164.6706 651.2055 0.0000 30665.9254 -116807.3070 298.1557 -147473.2325 -116765.3866 298.8796 20.9398 4.4148 502440.7921 -1.2824 -2.1637
ENERGY: 8000 1626.2447 2256.4772 3183.5715 0.0000 -175670.0129 20288.7934 620.5603 0.0000 30645.4419 -117048.9239 297.9566 -147694.3658 -117001.6407 299.5016 -58.0672 -55.9725 503170.5859 2.9584 2.4590
ENERGY: 9000 1611.1603 2297.5362 3162.8123 0.0000 -174995.4261 19974.5821 649.5703 0.0000 31103.9133 -116195.8517 302.4142 -147299.7650 -116148.0632 301.1305 35.1606 55.6565 502421.4136 -4.0539 -4.2140
ENERGY: 10000 1612.6482 2277.0704 3151.4297 0.0000 -174927.6943 19801.8049 678.9126 0.0000 30856.7236 -116549.1048 300.0108 -147405.8284 -116498.3130 300.8387 -57.9818 -1.3281 501663.1072 -0.3873 -0.2359
TCL: Setting parameter constraintScaling to 2.5
TCL: Running for 5000 steps
ETITLE: TS BOND ANGLE DIHED IMPRP ELECT VDW BOUNDARY MISC KINETIC TOTAL TEMP POTENTIAL TOTAL3 TEMPAVG PRESSURE GPRESSURE VOLUME PRESSAVG GPRESSAVG
ENERGY: 10000 1612.6482 2277.0704 3151.4297 0.0000 -174927.6943 19801.8049 339.4563 0.0000 30854.6565 -116890.6282 299.9907 -147745.2847 -116849.4241 299.9907 -148.0566 -81.2694 501663.1072 -148.0566 -81.2694
ENERGY: 11000 1667.0862 2371.9679 3126.4021 0.0000 -175669.5730 20100.1795 505.1326 0.0000 30998.4249 -116900.3798 301.3885 -147898.8047 -116854.6915 300.9038 -50.6686 -1.1091 500622.4879 3.9101 4.2411
ENERGY: 12000 1654.8416 2350.9270 3137.5818 0.0000 -175978.0106 20122.9240 522.7437 0.0000 30738.1468 -117450.8455 298.8579 -148188.9924 -117423.3084 298.9997 -51.0072 50.8146 499745.4572 -5.7479 -6.1010
ENERGY: 13000 1623.8366 2401.7511 3168.5127 0.0000 -175816.9117 20173.8776 514.1952 0.0000 30952.1450 -116982.5934 300.9386 -147934.7384 -116934.6270 299.7782 27.9105 -10.1449 501357.8014 6.5897 6.4459
ENERGY: 14000 1577.0481 2357.4422 3160.6758 0.0000 -175898.2893 20368.6082 542.4769 0.0000 30919.3159 -116972.7223 300.6194 -147892.0382 -116928.6885 300.1451 3.1245 13.0715 500076.0675 -1.9313 -1.8830
ENERGY: 15000 1601.8620 2364.6011 3155.2303 0.0000 -175755.1628 19867.9060 532.9093 0.0000 30672.6211 -117560.0331 298.2208 -148232.6542 -117518.1706 298.9017 32.5585 109.9248 498909.8153 -0.3527 -0.7155
TCL: Setting parameter constraintScaling to 1.25
TCL: Running for 5000 steps
ETITLE: TS BOND ANGLE DIHED IMPRP ELECT VDW BOUNDARY MISC KINETIC TOTAL TEMP POTENTIAL TOTAL3 TEMPAVG PRESSURE GPRESSURE VOLUME PRESSAVG GPRESSAVG
ENERGY: 15000 1601.8620 2364.6011 3155.2303 0.0000 -175755.1628 19867.9060 266.4547 0.0000 30670.5432 -117828.5657 298.2006 -148499.1089 -117786.6029 298.2006 -41.1511 37.0299 498909.8153 -41.1511 37.0299
ENERGY: 16000 1615.9035 2392.3384 3201.3132 0.0000 -176496.0557 20586.3115 418.3441 0.0000 30744.0593 -117537.7857 298.9154 -148281.8451 -117491.3903 298.2901 -109.9394 -71.7108 499276.9554 7.6972 7.5819
ENERGY: 17000 1555.5557 2319.6839 3212.8521 0.0000 -175611.6026 19868.4002 409.8601 0.0000 30542.5999 -117702.6507 296.9567 -148245.2507 -117654.3448 297.9575 -6.6078 -3.4434 498616.1489 1.6593 1.2929
ENERGY: 18000 1613.8872 2358.9541 3196.1119 0.0000 -175958.9074 20106.9605 412.5753 0.0000 30823.9791 -117446.4394 299.6924 -148270.4185 -117402.6644 298.9069 -77.4278 -33.2455 497857.7809 -2.3990 -2.2278
ENERGY: 19000 1573.2222 2426.0525 3199.9484 0.0000 -175507.2985 19740.3005 391.5784 0.0000 30790.7217 -117385.4748 299.3691 -148176.1965 -117337.1528 299.9424 9.8286 24.8621 498745.0307 9.7219 9.6969
ENERGY: 20000 1670.7557 2372.0866 3195.2988 0.0000 -176014.9151 20132.3262 395.2300 0.0000 30995.1433 -117254.0746 301.3566 -148249.2179 -117201.9350 300.4174 -5.5039 46.4313 497884.6462 5.1492 4.7138
TCL: Setting parameter constraintScaling to 0.625
TCL: Running for 5000 steps
ETITLE: TS BOND ANGLE DIHED IMPRP ELECT VDW BOUNDARY MISC KINETIC TOTAL TEMP POTENTIAL TOTAL3 TEMPAVG PRESSURE GPRESSURE VOLUME PRESSAVG GPRESSAVG
ENERGY: 20000 1670.7557 2372.0866 3195.2988 0.0000 -176014.9151 20132.3262 197.6150 0.0000 30993.0627 -117453.7701 301.3364 -148446.8329 -117416.4382 301.3364 -31.9069 19.5181 497884.6462 -31.9069 19.5181
ENERGY: 21000 1594.4484 2375.0630 3205.1903 0.0000 -176080.0526 20311.9819 327.3764 0.0000 30858.0275 -117407.9651 300.0235 -148265.9926 -117354.1015 299.9016 -0.4777 12.7265 496985.7003 -4.2440 -4.3476
ENERGY: 22000 1597.6813 2380.6101 3188.5384 0.0000 -176391.3552 20415.2434 303.6022 0.0000 30659.3208 -117846.3590 298.0915 -148505.6798 -117793.2268 298.6877 86.6223 81.4042 498296.7148 -3.5313 -4.2868
ENERGY: 23000 1611.2851 2368.4144 3188.6525 0.0000 -175785.7571 20117.7858 315.4990 0.0000 31038.1517 -117145.9687 301.7748 -148184.1204 -117095.1408 298.9548 -107.7474 -6.0297 499132.2044 6.0604 6.7813
ENERGY: 24000 1602.5871 2353.8501 3228.1529 0.0000 -175237.3163 19998.5840 328.9578 0.0000 30974.2302 -116750.9542 301.1533 -147725.1844 -116707.1976 300.4812 -40.2773 16.2309 498666.6846 6.7375 7.0169
ENERGY: 25000 1617.3152 2378.7847 3211.7083 0.0000 -175175.9785 19827.2298 337.4245 0.0000 30888.0623 -116915.4538 300.3155 -147803.5161 -116869.0888 300.5016 10.5327 63.3257 496330.5615 -8.1069 -8.0916
TCL: Setting parameter constraintScaling to 0.3125
TCL: Running for 5000 steps
ETITLE: TS BOND ANGLE DIHED IMPRP ELECT VDW BOUNDARY MISC KINETIC TOTAL TEMP POTENTIAL TOTAL3 TEMPAVG PRESSURE GPRESSURE VOLUME PRESSAVG GPRESSAVG
ENERGY: 25000 1617.3152 2378.7847 3211.7083 0.0000 -175175.9786 19827.2298 168.7123 0.0000 30886.0571 -117086.1713 300.2960 -147972.2284 -117042.8571 300.2960 -49.7748 5.5666 496330.5615 -49.7748 5.5666
ENERGY: 26000 1680.6118 2393.0061 3223.8638 0.0000 -175859.4437 20083.0996 255.3588 0.0000 30946.1456 -117277.3580 300.8802 -148223.5036 -117243.0693 300.3702 -118.0331 -21.4125 498186.8013 10.0968 10.3778
ENERGY: 27000 1648.4279 2478.3704 3220.0434 0.0000 -175646.4619 20050.5294 266.9056 0.0000 30769.3033 -117212.8819 299.1609 -147982.1852 -117179.8506 298.9075 21.3918 18.3701 498082.9703 2.8384 2.6538
ENERGY: 28000 1639.4358 2411.5890 3215.0585 0.0000 -175645.7123 19886.6026 262.0145 0.0000 30934.3879 -117296.6241 300.7659 -148231.0120 -117258.8578 299.1660 -72.3637 -14.7505 497236.3325 -5.7125 -5.7359
ENERGY: 29000 1665.4064 2430.4873 3220.5615 0.0000 -175877.5194 20156.3517 251.9774 0.0000 30999.4954 -117153.2396 301.3989 -148152.7349 -117111.6374 301.9480 -85.9549 -19.3524 498038.3283 14.0717 14.1501
ENERGY: 30000 1677.0185 2385.1791 3217.6367 0.0000 -175399.6059 19899.1009 251.0918 0.0000 30626.4877 -117343.0913 297.7723 -147969.5790 -117308.5798 299.8485 -272.0198 -70.2638 497922.5720 -13.2988 -12.6467
TCL: Setting parameter constraintScaling to 0.15625
TCL: Running for 5000 steps
ETITLE: TS BOND ANGLE DIHED IMPRP ELECT VDW BOUNDARY MISC KINETIC TOTAL TEMP POTENTIAL TOTAL3 TEMPAVG PRESSURE GPRESSURE VOLUME PRESSAVG GPRESSAVG
ENERGY: 30000 1677.0185 2385.1791 3217.6367 0.0000 -175399.6059 19899.1009 125.5459 0.0000 30624.4395 -117470.6853 297.7524 -148095.1249 -117424.4579 297.7524 -296.2585 -88.4423 497922.5720 -296.2585 -88.4423
ENERGY: 31000 1659.0838 2373.0259 3201.4884 0.0000 -175727.2665 20137.9816 189.8924 0.0000 30566.4217 -117599.3728 297.1883 -148165.7944 -117549.1708 298.8739 -68.2570 25.0826 497625.0319 5.3547 5.8471
ENERGY: 32000 1686.9391 2444.8656 3215.0277 0.0000 -175752.1702 20194.9330 191.6424 0.0000 31141.0151 -116877.7473 302.7749 -148018.7624 -116846.6353 300.4030 130.4240 68.9665 498286.1803 0.2205 0.1709
ENERGY: 33000 1684.6947 2384.9546 3211.0560 0.0000 -175358.0437 19928.1929 197.7509 0.0000 31028.6022 -116922.7924 301.6819 -147951.3946 -116888.3471 302.0728 -99.6475 9.5409 499285.9733 1.2158 1.4707
ENERGY: 34000 1681.1969 2440.8117 3193.8054 0.0000 -175763.6811 20241.1793 198.7137 0.0000 30845.8204 -117162.1536 299.9048 -148007.9739 -117122.9233 300.8593 -132.4621 -130.4238 497975.9837 -5.8619 -6.3661
ENERGY: 35000 1615.4435 2333.4456 3222.1035 0.0000 -175820.1713 20061.9799 200.1982 0.0000 30777.1652 -117609.8355 299.2373 -148387.0006 -117563.1883 299.9460 -77.4038 11.1080 498249.0627 1.6725 1.0928
TCL: Setting parameter constraintScaling to 0.078125
TCL: Running for 5000 steps
ETITLE: TS BOND ANGLE DIHED IMPRP ELECT VDW BOUNDARY MISC KINETIC TOTAL TEMP POTENTIAL TOTAL3 TEMPAVG PRESSURE GPRESSURE VOLUME PRESSAVG GPRESSAVG
ENERGY: 35000 1615.4435 2333.4456 3222.1035 0.0000 -175820.1713 20061.9799 100.0991 0.0000 30775.0840 -117712.0157 299.2171 -148487.0997 -117665.1643 299.2171 -78.0780 9.6732 498249.0627 -78.0780 9.6732
ENERGY: 36000 1609.3439 2379.6363 3209.7473 0.0000 -176022.1163 20171.4071 156.4917 0.0000 30698.4613 -117797.0288 298.4721 -148495.4901 -117741.1597 299.0256 4.8017 116.0188 497401.3231 -7.6857 -7.5992
ENERGY: 37000 1562.3135 2447.1921 3250.2427 0.0000 -176231.5803 20264.8846 141.1738 0.0000 30779.3668 -117786.4068 299.2587 -148565.7736 -117736.1652 299.0186 -26.9901 17.8475 497353.8864 6.6826 6.7717
ENERGY: 38000 1585.3509 2393.2642 3216.0582 0.0000 -175839.6944 19994.4511 155.5888 0.0000 30667.0588 -117827.9224 298.1668 -148494.9812 -117783.6833 298.3625 -177.3962 -73.3704 497889.0656 0.2775 0.1443
ENERGY: 39000 1622.5701 2477.4374 3168.3665 0.0000 -175855.3550 20061.1008 158.5390 0.0000 30654.7271 -117712.6140 298.0469 -148367.3412 -117667.3942 299.2332 -32.5325 -64.2214 498183.4700 6.6187 6.6067
ENERGY: 40000 1656.5338 2446.6554 3229.6758 0.0000 -176048.3499 20123.5530 157.2985 0.0000 30739.5480 -117695.0855 298.8715 -148434.6334 -117659.4617 299.5182 -118.2637 39.0412 496487.0359 -1.0125 -1.0288
TCL: Setting parameter constraintScaling to 0.0390625
TCL: Running for 5000 steps
ETITLE: TS BOND ANGLE DIHED IMPRP ELECT VDW BOUNDARY MISC KINETIC TOTAL TEMP POTENTIAL TOTAL3 TEMPAVG PRESSURE GPRESSURE VOLUME PRESSAVG GPRESSAVG
ENERGY: 40000 1656.5338 2446.6554 3229.6758 0.0000 -176048.3499 20123.5530 78.6492 0.0000 30737.4730 -117775.8097 298.8514 -148513.2827 -117735.0518 298.8514 -124.2766 29.5222 496487.0359 -124.2766 29.5222
ENERGY: 41000 1639.3677 2382.6599 3239.7322 0.0000 -175913.5514 20000.1913 106.0902 0.0000 30769.6344 -117775.8756 299.1641 -148545.5100 -117735.5334 299.0208 -63.8633 -23.0052 496317.5983 3.0092 3.2321
ENERGY: 42000 1646.0038 2396.2906 3211.3137 0.0000 -176006.1838 20004.8485 113.5668 0.0000 30655.4966 -117978.6638 298.0543 -148634.1604 -117931.4820 298.5447 -93.4895 -66.7856 495736.1831 1.0679 1.1735
ENERGY: 43000 1655.9676 2384.8113 3208.3980 0.0000 -176344.9421 20297.8199 115.8376 0.0000 30695.0952 -117987.0126 298.4393 -148682.1078 -117936.5643 298.8303 -19.1665 37.3727 496363.3473 7.6207 7.3368
ENERGY: 44000 1669.3059 2483.3734 3228.4739 0.0000 -175641.3328 19879.0997 118.3311 0.0000 30749.5765 -117513.1723 298.9691 -148262.7488 -117465.1141 300.4283 19.7848 -23.3413 496573.0366 -2.1361 -1.9043
ENERGY: 45000 1589.9030 2343.5947 3248.6751 0.0000 -176124.1033 20133.5721 134.3278 0.0000 30792.4955 -117881.5350 299.3863 -148674.0306 -117838.2368 298.8968 60.0323 38.1140 497223.7660 0.1835 0.2445
TCL: Setting parameter constraintScaling to 0.01953125
TCL: Running for 5000 steps
ETITLE: TS BOND ANGLE DIHED IMPRP ELECT VDW BOUNDARY MISC KINETIC TOTAL TEMP POTENTIAL TOTAL3 TEMPAVG PRESSURE GPRESSURE VOLUME PRESSAVG GPRESSAVG
ENERGY: 45000 1589.9030 2343.5947 3248.6751 0.0000 -176124.1033 20133.5721 67.1639 0.0000 30790.4247 -117950.7698 299.3662 -148741.1945 -117909.7680 299.3662 55.7814 25.9748 497223.7660 55.7814 25.9748
ENERGY: 46000 1718.9053 2502.9339 3212.5949 0.0000 -176195.9012 20055.7937 79.3777 0.0000 30822.1523 -117804.1433 299.6747 -148626.2956 -117767.1551 299.3127 -101.7712 -83.6191 496241.7334 -7.4874 -7.7506
ENERGY: 47000 1651.8052 2402.8110 3210.7345 0.0000 -175892.8396 20007.3397 77.8510 0.0000 30857.1759 -117685.1224 300.0152 -148542.2982 -117634.6510 299.9060 -3.4098 10.7370 496674.1126 4.0141 3.8249
ENERGY: 48000 1707.6680 2305.9761 3210.3917 0.0000 -175537.9699 20086.8305 81.5918 0.0000 30937.0787 -117208.4330 300.7921 -148145.5117 -117173.6820 300.8341 -89.4074 -1.9279 497439.3425 10.4702 10.2190
ENERGY: 49000 1652.5195 2362.5627 3249.6496 0.0000 -175232.6511 19864.8056 88.0259 0.0000 31007.9497 -117007.1382 301.4811 -148015.0878 -116954.9750 301.4153 7.9563 22.9125 497601.7737 7.5941 8.0226
ENERGY: 50000 1656.3419 2400.0186 3238.1096 0.0000 -175732.6223 19931.8439 87.3078 0.0000 30974.4176 -117444.5829 301.1551 -148419.0005 -117402.1731 299.9537 -74.4566 12.5727 497377.6274 6.4194 6.1468
TCL: Setting parameter constraintScaling to 0
TCL: Running for 5000 steps
ETITLE: TS BOND ANGLE DIHED IMPRP ELECT VDW BOUNDARY MISC KINETIC TOTAL TEMP POTENTIAL TOTAL3 TEMPAVG PRESSURE GPRESSURE VOLUME PRESSAVG GPRESSAVG
ENERGY: 50000 1656.3419 2400.0186 3238.1096 0.0000 -175732.6223 19931.8439 0.0000 0.0000 30972.3578 -117533.9505 301.1351 -148506.3084 -117488.4435 301.1351 -77.3454 3.3585 497377.6274 -77.3454 3.3585
ENERGY: 51000 1716.5595 2442.0534 3255.1628 0.0000 -175610.7103 20017.9930 0.0000 0.0000 30991.4675 -117187.4741 301.3209 -148178.9416 -117135.2932 300.6196 -86.9793 -45.8212 496579.7197 9.7128 10.0264
ENERGY: 52000 1551.8332 2429.2683 3212.0272 0.0000 -175675.4130 20060.0485 0.0000 0.0000 31054.7831 -117367.4528 301.9365 -148422.2358 -117315.5614 300.5275 137.9179 116.2732 497517.6209 2.4372 2.7833
ENERGY: 53000 1598.2917 2420.5985 3211.7143 0.0000 -175655.6667 19946.2214 0.0000 0.0000 30871.6600 -117607.1807 300.1560 -148478.8407 -117562.6841 299.7877 -34.2855 30.1766 497861.4233 10.7275 10.5116
ENERGY: 54000 1612.6908 2377.6962 3193.6532 0.0000 -175752.7518 19931.0133 0.0000 0.0000 30859.4935 -117778.2048 300.0377 -148637.6984 -117729.9237 299.2605 -35.4018 -53.0783 497185.0546 -12.5150 -12.4578
ENERGY: 55000 1633.9654 2386.5914 3235.1601 0.0000 -175754.7855 20054.3493 0.0000 0.0000 30787.8423 -117656.8769 299.3411 -148444.7193 -117622.7286 299.0838 -58.9163 -52.5881 496672.8351 -9.6645 -9.4522
