Info: SIMULATION PARAMETERS:
Info: TIMESTEP               2
Info: NUMBER OF STEPS        0
Info: STEPS PER CYCLE        10
Info: PERIODIC CELL BASIS 1  72.449 0 0
Info: PERIODIC CELL BASIS 2  0 93.247 0
Info: PERIODIC CELL BASIS 3  0 0 79.185
Info: PERIODIC CELL CENTER   -0.248 -0.156 -0.047
Info: WRAPPING WATERS AROUND PERIODIC BOUNDARIES ON OUTPUT.
Info: WRAPPING ALL CLUSTERS AROUND PERIODIC BOUNDARIES ON OUTPUT.
Info: FIRST LDB TIMESTEP     50
Info: LAST LDB TIMESTEP     -1
Info: HOM BACKGROUND SCALING 1
Info: PME BACKGROUND SCALING 1
Info: MIN ATOMS PER PATCH    40
Info: INITIAL TEMPERATURE    0
Info: CENTER OF MASS MOVING INITIALLY? NO
Info: DIELECTRIC             1
Info: EXCLUDE                SCALED ONE-FOUR
Info: 1-4 ELECTROSTATICS SCALED BY 0.833333
Info: MODIFIED 1-4 VDW PARAMETERS WILL BE USED
Info: NO DCD TRAJECTORY OUTPUT
Info: NO EXTENDED SYSTEM TRAJECTORY OUTPUT
Info: NO VELOCITY DCD OUTPUT
Info: NO FORCE DCD OUTPUT
Info: OUTPUT FILENAME        ../replicas/rep55/equilibration/eq0
Info: NO RESTART FILE
Info: SWITCHING ACTIVE
Info: SWITCHING ON           10
Info: SWITCHING OFF          12
Info: PAIRLIST DISTANCE      13.5
Info: PAIRLIST SHRINK RATE   0.01
Info: PAIRLIST GROW RATE     0.01
Info: PAIRLIST TRIGGER       0.3
Info: PAIRLISTS PER CYCLE    2
Info: PAIRLISTS ENABLED
Info: MARGIN                 0
Info: HYDROGEN GROUP CUTOFF  2.5
Info: PATCH DIMENSION        16
Info: ENERGY OUTPUT STEPS    500
Info: CROSSTERM ENERGY INCLUDED IN DIHEDRAL
Info: TIMING OUTPUT STEPS    5000
Info: PRESSURE OUTPUT STEPS  500
Info: HARMONIC CONSTRAINTS ACTIVE
Info: HARMONIC CONS EXP      2
Info: HARMONIC CONS SCALING  10
Info: CONJUGATE GRADIENT MINIMIZATION ACTIVE
Info: LINE MINIMIZATION GOAL = 0.001
Info: BABY STEP SIZE = 0.01
Info: TINY STEP SIZE = 1e-06
Info: PARTICLE MESH EWALD (PME) ACTIVE
Info: PME TOLERANCE               1e-06
Info: PME EWALD COEFFICIENT       0.257952
Info: PME INTERPOLATION ORDER     4
Info: PME GRID DIMENSIONS         80 96 80
Info: PME MAXIMUM GRID SPACING    1
Info: FULL ELECTROSTATIC EVALUATION FREQUENCY      2
Info: USING VERLET I (r-RESPA) MTS SCHEME.
Info: C1 SPLITTING OF LONG RANGE ELECTROSTATICS
Info: PLACING ATOMS IN PATCHES BY HYDROGEN GROUPS
Info: RIGID BONDS TO HYDROGEN : ALL
Info:         ERROR TOLERANCE : 1e-05
Info:          MAX ITERATIONS : 100
Info: RIGID WATER USING SETTLE ALGORITHM
Info: RANDOM NUMBER SEED     1503690981
Info: USE HYDROGEN BONDS?    NO
Info: Using AMBER format force field!
Info: AMBER PARM FILE        ../build/complex.top
Info: COORDINATE PDB         ../build/complex.pdb
Info: Exclusions in PARM file will be ignored!
Info: SCNB (VDW SCALING)     2
Info: USING ARITHMETIC MEAN TO COMBINE L-J SIGMA PARAMETERS
Info: SUMMARY OF PARAMETERS:
Info: 71 BONDS
Info: 145 ANGLES
Info: 76 DIHEDRAL
Info: 0 IMPROPER
Info: 0 CROSSTERM
Info: 0 VDW
Info: 190 VDW_PAIRS
Info: 0 NBTHOLE_PAIRS
Info: STRUCTURE SUMMARY:
Info: 49394 ATOMS
Info: 49448 BONDS
Info: 8698 ANGLES
Info: 18780 DIHEDRALS
Info: 0 IMPROPERS
Info: 0 CROSSTERMS
Info: 0 EXCLUSIONS
Info: 2336 CONSTRAINTS
Info: 47058 RIGID BONDS
Info: 101124 DEGREES OF FREEDOM
Info: 17225 HYDROGEN GROUPS
Info: 4 ATOMS IN LARGEST HYDROGEN GROUP
Info: 17225 MIGRATION GROUPS
Info: 4 ATOMS IN LARGEST MIGRATION GROUP
Info: TOTAL MASS = 301478 amu
Info: TOTAL CHARGE = 1.00115e-05 e
Info: MASS DENSITY = 0.935846 g/cm^3
Info: ATOM DENSITY = 0.0923345 atoms/A^3
Info: ADDED 70656 IMPLICIT EXCLUSIONS
Info: NONBONDED TABLE R-SQUARED SPACING: 0.0625
Info: NONBONDED TABLE SIZE: 769 POINTS
Info: REMOVING COM VELOCITY 0 0 0
TCL: Minimizing for 100 steps
ETITLE: TS BOND ANGLE DIHED IMPRP ELECT VDW BOUNDARY MISC KINETIC TOTAL TEMP POTENTIAL TOTAL3 TEMPAVG PRESSURE GPRESSURE VOLUME PRESSAVG GPRESSAVG
ENERGY: 0 155.4176 1012.2698 2855.7272 0.0000 -154496.7911 207729.2052 0.0468 0.0000 0.0000 57255.8755 0.0000 57255.8755 57255.8755 0.0000 116350.2532 86546.1670 534946.2959 116350.2532 86546.1670
ENERGY: 20 304.7550 935.7911 2893.4663 0.0000 -158672.9404 17936.6595 143.9454 0.0000 0.0000 -136458.3231 0.0000 -136458.3231 -136458.3231 0.0000 16523.9388 -239.4558 534946.2959 16523.9388 -239.4558
ENERGY: 40 198.7438 799.5727 2896.9273 0.0000 -162811.4534 16417.9536 221.3030 0.0000 0.0000 -142276.9530 0.0000 -142276.9530 -142276.9530 0.0000 15011.2702 -2135.4699 534946.2959 15011.2702 -2135.4699
ENERGY: 60 130.5283 715.3440 2898.2166 0.0000 -167496.1559 15446.7541 315.2796 0.0000 0.0000 -147990.0333 0.0000 -147990.0333 -147990.0333 0.0000 13793.8839 -3799.3983 534946.2959 13793.8839 -3799.3983
ENERGY: 80 431.2740 765.6309 2904.3785 0.0000 -169937.5286 15121.1525 372.0122 0.0000 0.0000 -150343.0806 0.0000 -150343.0806 -150343.0806 0.0000 13270.3309 -4577.2447 534946.2959 13270.3309 -4577.2447
ENERGY: 100 129.7146 708.0653 2904.2780 0.0000 -171050.0682 15018.6531 384.2000 0.0000 0.0000 -151905.1572 0.0000 -151905.1572 -151905.1572 0.0000 13092.9124 -4843.6323 534946.2959 13092.9124 -4843.6323
TCL: Setting parameter constraintScaling to 5.0
TCL: Minimizing for 100 steps
ETITLE: TS BOND ANGLE DIHED IMPRP ELECT VDW BOUNDARY MISC KINETIC TOTAL TEMP POTENTIAL TOTAL3 TEMPAVG PRESSURE GPRESSURE VOLUME PRESSAVG GPRESSAVG
ENERGY: 100 129.7146 708.0653 2904.2780 0.0000 -171050.0682 15018.6531 192.1000 0.0000 0.0000 -152097.2572 0.0000 -152097.2572 -152097.2572 0.0000 13703.5077 -22944.4553 534946.2959 13703.5077 -22944.4553
ENERGY: 120 118.6822 680.2877 2909.9066 0.0000 -172396.3172 14830.1203 259.9550 0.0000 0.0000 -153597.3654 0.0000 -153597.3654 -153597.3654 0.0000 13320.9468 -4756.3081 534946.2959 13320.9468 -4756.3081
ENERGY: 140 109.1489 671.1470 2912.0863 0.0000 -174830.2686 14716.1439 337.7309 0.0000 0.0000 -156084.0116 0.0000 -156084.0116 -156084.0116 0.0000 12908.9577 -5423.1484 534946.2959 12908.9577 -5423.1484
ENERGY: 160 125.8552 667.1492 2914.1927 0.0000 -175967.0402 14735.1338 362.9187 0.0000 0.0000 -157161.7906 0.0000 -157161.7906 -157161.7906 0.0000 12806.8970 -5644.4572 534946.2959 12806.8970 -5644.4572
ENERGY: 180 303.5150 659.6792 2917.2965 0.0000 -177408.6892 14815.0137 395.3822 0.0000 0.0000 -158317.8027 0.0000 -158317.8027 -158317.8027 0.0000 12699.3179 -5901.5081 534946.2959 12699.3179 -5901.5081
ENERGY: 200 109.2082 628.4769 2923.3588 0.0000 -179543.9490 15071.1730 441.8854 0.0000 0.0000 -160369.8467 0.0000 -160369.8467 -160369.8467 0.0000 12659.9902 -6162.1825 534946.2959 12659.9902 -6162.1825
TCL: Setting parameter constraintScaling to 2.5
TCL: Minimizing for 100 steps
ETITLE: TS BOND ANGLE DIHED IMPRP ELECT VDW BOUNDARY MISC KINETIC TOTAL TEMP POTENTIAL TOTAL3 TEMPAVG PRESSURE GPRESSURE VOLUME PRESSAVG GPRESSAVG
ENERGY: 200 109.2082 628.4769 2923.3588 0.0000 -179543.9490 15071.1730 220.9427 0.0000 0.0000 -160590.7894 0.0000 -160590.7894 -160590.7894 0.0000 13208.4160 -25281.3333 534946.2959 13208.4160 -25281.3333
ENERGY: 220 274.9803 652.0627 2925.2507 0.0000 -180395.1324 15108.8493 287.9162 0.0000 0.0000 -161146.0732 0.0000 -161146.0732 -161146.0732 0.0000 13000.1452 -5921.3681 534946.2959 13000.1452 -5921.3681
ENERGY: 240 144.5921 629.1185 2922.0979 0.0000 -181650.3692 15308.7251 331.5663 0.0000 0.0000 -162314.2693 0.0000 -162314.2693 -162314.2693 0.0000 12968.5252 -6083.0273 534946.2959 12968.5252 -6083.0273
ENERGY: 260 238.3201 648.2544 2922.1850 0.0000 -183605.3314 15751.5184 409.9215 0.0000 0.0000 -163635.1320 0.0000 -163635.1320 -163635.1320 0.0000 12997.3343 -6272.5327 534946.2959 12997.3343 -6272.5327
ENERGY: 280 122.2882 649.7053 2918.8902 0.0000 -184722.1767 16071.7969 431.3416 0.0000 0.0000 -164528.1545 0.0000 -164528.1545 -164528.1545 0.0000 13123.0974 -6278.5780 534946.2959 13123.0974 -6278.5780
ENERGY: 300 229.5724 690.0684 2927.5017 0.0000 -186439.1162 16632.6020 425.1378 0.0000 0.0000 -165534.2338 0.0000 -165534.2338 -165534.2338 0.0000 13386.5784 -6208.2209 534946.2959 13386.5784 -6208.2209
TCL: Setting parameter constraintScaling to 1.25
TCL: Minimizing for 100 steps
ETITLE: TS BOND ANGLE DIHED IMPRP ELECT VDW BOUNDARY MISC KINETIC TOTAL TEMP POTENTIAL TOTAL3 TEMPAVG PRESSURE GPRESSURE VOLUME PRESSAVG GPRESSAVG
ENERGY: 300 229.5724 690.0684 2927.5017 0.0000 -186439.1162 16632.6020 212.5689 0.0000 0.0000 -165746.8027 0.0000 -165746.8027 -165746.8027 0.0000 13797.0673 -26295.1770 534946.2959 13797.0673 -26295.1770
ENERGY: 320 168.5438 648.2593 2911.0555 0.0000 -186874.2812 16719.3523 245.7233 0.0000 0.0000 -166181.3470 0.0000 -166181.3470 -166181.3470 0.0000 13780.7844 -5856.0986 534946.2959 13780.7844 -5856.0986
ENERGY: 340 257.6855 709.9820 2919.2271 0.0000 -188750.2673 17247.4269 380.3420 0.0000 0.0000 -167235.6038 0.0000 -167235.6038 -167235.6038 0.0000 13718.2549 -6110.5938 534946.2959 13718.2549 -6110.5938
ENERGY: 360 155.5520 658.6930 2902.9848 0.0000 -188967.2219 17341.7401 355.0925 0.0000 0.0000 -167553.1595 0.0000 -167553.1595 -167553.1595 0.0000 13844.8659 -6024.2932 534946.2959 13844.8659 -6024.2932
ENERGY: 380 404.2630 708.2900 2920.7274 0.0000 -190542.6788 17959.8756 346.3148 0.0000 0.0000 -168203.2080 0.0000 -168203.2080 -168203.2080 0.0000 14160.8405 -5880.4782 534946.2959 14160.8405 -5880.4782
ENERGY: 400 208.7242 685.6623 2911.1005 0.0000 -192210.2887 18692.8844 373.7154 0.0000 0.0000 -169338.2019 0.0000 -169338.2019 -169338.2019 0.0000 14549.1352 -5715.9224 534946.2959 14549.1352 -5715.9224
TCL: Setting parameter constraintScaling to 0.625
TCL: Minimizing for 100 steps
ETITLE: TS BOND ANGLE DIHED IMPRP ELECT VDW BOUNDARY MISC KINETIC TOTAL TEMP POTENTIAL TOTAL3 TEMPAVG PRESSURE GPRESSURE VOLUME PRESSAVG GPRESSAVG
ENERGY: 400 208.7242 685.6623 2911.1005 0.0000 -192210.2887 18692.8844 186.8577 0.0000 0.0000 -169525.0596 0.0000 -169525.0596 -169525.0596 0.0000 14845.1714 -26616.2146 534946.2959 14845.1714 -26616.2146
ENERGY: 420 340.0600 673.6159 2893.1096 0.0000 -192499.8001 18725.8116 211.8128 0.0000 0.0000 -169655.3901 0.0000 -169655.3901 -169655.3901 0.0000 14748.0307 -5518.1033 534946.2959 14748.0307 -5518.1033
ENERGY: 440 253.7259 650.3493 2886.4006 0.0000 -192963.6460 18828.5451 247.8455 0.0000 0.0000 -170096.7795 0.0000 -170096.7795 -170096.7795 0.0000 14716.7322 -5611.8673 534946.2959 14716.7322 -5611.8673
ENERGY: 460 152.4371 648.9551 2884.1893 0.0000 -193433.3042 18976.6000 272.4828 0.0000 0.0000 -170498.6399 0.0000 -170498.6399 -170498.6399 0.0000 14761.1454 -5619.1407 534946.2959 14761.1454 -5619.1407
ENERGY: 480 155.0799 632.3402 2886.0095 0.0000 -194108.8295 19264.4369 267.1393 0.0000 0.0000 -170903.8237 0.0000 -170903.8237 -170903.8237 0.0000 14926.4306 -5516.1003 534946.2959 14926.4306 -5516.1003
ENERGY: 500 171.9740 661.7878 2890.9017 0.0000 -195513.1841 19833.9958 299.1378 0.0000 0.0000 -171655.3869 0.0000 -171655.3869 -171655.3869 0.0000 15205.0379 -5417.2964 534946.2959 15205.0379 -5417.2964
TCL: Setting parameter constraintScaling to 0.3125
TCL: Minimizing for 100 steps
ETITLE: TS BOND ANGLE DIHED IMPRP ELECT VDW BOUNDARY MISC KINETIC TOTAL TEMP POTENTIAL TOTAL3 TEMPAVG PRESSURE GPRESSURE VOLUME PRESSAVG GPRESSAVG
ENERGY: 500 171.9740 661.7878 2890.9017 0.0000 -195513.1841 19833.9958 149.5689 0.0000 0.0000 -171804.9558 0.0000 -171804.9558 -171804.9558 0.0000 15399.0510 -26833.0314 534946.2959 15399.0510 -26833.0314
ENERGY: 520 281.2486 715.2596 2874.5327 0.0000 -196013.6936 19951.8042 180.8274 0.0000 0.0000 -172010.0211 0.0000 -172010.0211 -172010.0211 0.0000 15344.6250 -5336.1747 534946.2959 15344.6250 -5336.1747
ENERGY: 540 247.7238 684.1851 2877.6044 0.0000 -196406.7318 20077.0540 196.6032 0.0000 0.0000 -172323.5613 0.0000 -172323.5613 -172323.5613 0.0000 15312.2271 -5386.4864 534946.2959 15312.2271 -5386.4864
ENERGY: 560 164.4135 665.7360 2871.3794 0.0000 -196803.0309 20221.2503 207.3704 0.0000 0.0000 -172672.8812 0.0000 -172672.8812 -172672.8812 0.0000 15400.6007 -5352.0449 534946.2959 15400.6007 -5352.0449
ENERGY: 580 165.9658 648.5643 2869.6373 0.0000 -197146.0343 20357.7125 203.3121 0.0000 0.0000 -172900.8423 0.0000 -172900.8423 -172900.8423 0.0000 15512.3840 -5279.3599 534946.2959 15512.3840 -5279.3599
ENERGY: 600 162.4780 671.6775 2883.2366 0.0000 -198201.4818 20834.6840 207.8126 0.0000 0.0000 -173441.5931 0.0000 -173441.5931 -173441.5931 0.0000 15820.3346 -5103.7863 534946.2959 15820.3346 -5103.7863
TCL: Setting parameter constraintScaling to 0.15625
TCL: Minimizing for 100 steps
ETITLE: TS BOND ANGLE DIHED IMPRP ELECT VDW BOUNDARY MISC KINETIC TOTAL TEMP POTENTIAL TOTAL3 TEMPAVG PRESSURE GPRESSURE VOLUME PRESSAVG GPRESSAVG
ENERGY: 600 162.4780 671.6775 2883.2366 0.0000 -198201.4818 20834.6840 103.9063 0.0000 0.0000 -173545.4994 0.0000 -173545.4994 -173545.4994 0.0000 15939.4312 -26935.0772 534946.2959 15939.4312 -26935.0772
ENERGY: 620 234.1276 699.3908 2860.8955 0.0000 -198579.8399 20892.7843 121.4885 0.0000 0.0000 -173771.1531 0.0000 -173771.1531 -173771.1531 0.0000 15824.1548 -5130.5922 534946.2959 15824.1548 -5130.5922
ENERGY: 640 263.8583 751.1533 2873.5527 0.0000 -199195.5753 21124.9097 141.4537 0.0000 0.0000 -174040.6477 0.0000 -174040.6477 -174040.6477 0.0000 15845.3115 -5167.0798 534946.2959 15845.3115 -5167.0798
ENERGY: 660 190.3124 711.4438 2858.0205 0.0000 -200040.2969 21424.8303 155.9174 0.0000 0.0000 -174699.7726 0.0000 -174699.7726 -174699.7726 0.0000 16002.4721 -5125.0545 534946.2959 16002.4721 -5125.0545
ENERGY: 680 173.9290 679.2683 2842.2208 0.0000 -200605.5186 21655.4398 155.7246 0.0000 0.0000 -175098.9361 0.0000 -175098.9361 -175098.9361 0.0000 16162.2617 -5039.4964 534946.2959 16162.2617 -5039.4964
ENERGY: 700 187.5896 667.6638 2856.1609 0.0000 -201262.2627 21992.3927 152.2547 0.0000 0.0000 -175406.2010 0.0000 -175406.2010 -175406.2010 0.0000 16447.6016 -4829.2815 534946.2959 16447.6016 -4829.2815
TCL: Setting parameter constraintScaling to 0.078125
TCL: Minimizing for 100 steps
ETITLE: TS BOND ANGLE DIHED IMPRP ELECT VDW BOUNDARY MISC KINETIC TOTAL TEMP POTENTIAL TOTAL3 TEMPAVG PRESSURE GPRESSURE VOLUME PRESSAVG GPRESSAVG
ENERGY: 700 187.5896 667.6638 2856.1609 0.0000 -201262.2627 21992.3927 76.1274 0.0000 0.0000 -175482.3283 0.0000 -175482.3283 -175482.3283 0.0000 16521.7100 -27083.9373 534946.2959 16521.7100 -27083.9373
ENERGY: 720 350.3230 734.5088 2845.8720 0.0000 -201496.8474 21984.8416 82.3421 0.0000 0.0000 -175498.9600 0.0000 -175498.9600 -175498.9600 0.0000 16430.4667 -4863.3581 534946.2959 16430.4667 -4863.3581
ENERGY: 740 164.6756 656.8385 2835.2008 0.0000 -201694.9712 22053.8448 85.6871 0.0000 0.0000 -175898.7242 0.0000 -175898.7242 -175898.7242 0.0000 16443.8372 -4883.0062 534946.2959 16443.8372 -4883.0062
ENERGY: 760 208.4143 704.7714 2835.8469 0.0000 -202145.1405 22221.6315 89.5446 0.0000 0.0000 -176084.9317 0.0000 -176084.9317 -176084.9317 0.0000 16495.0829 -4890.9627 534946.2959 16495.0829 -4890.9627
ENERGY: 780 179.0112 687.1581 2853.0703 0.0000 -202845.0262 22590.4630 91.4199 0.0000 0.0000 -176443.9037 0.0000 -176443.9037 -176443.9037 0.0000 16806.9696 -4661.4356 534946.2959 16806.9696 -4661.4356
ENERGY: 800 180.6603 663.1087 2829.5805 0.0000 -203022.7440 22595.9391 95.9298 0.0000 0.0000 -176657.5257 0.0000 -176657.5257 -176657.5257 0.0000 16709.0753 -4769.9126 534946.2959 16709.0753 -4769.9126
TCL: Setting parameter constraintScaling to 0.0390625
TCL: Minimizing for 100 steps
ETITLE: TS BOND ANGLE DIHED IMPRP ELECT VDW BOUNDARY MISC KINETIC TOTAL TEMP POTENTIAL TOTAL3 TEMPAVG PRESSURE GPRESSURE VOLUME PRESSAVG GPRESSAVG
ENERGY: 800 180.6603 663.1087 2829.5805 0.0000 -203022.7441 22595.9391 47.9649 0.0000 0.0000 -176705.4906 0.0000 -176705.4906 -176705.4906 0.0000 16751.4072 -27272.2927 534946.2959 16751.4072 -27272.2927
ENERGY: 820 230.8832 668.8035 2824.8968 0.0000 -203219.7927 22663.4308 49.9017 0.0000 0.0000 -176781.8767 0.0000 -176781.8767 -176781.8767 0.0000 16787.0834 -4713.2348 534946.2959 16787.0834 -4713.2348
ENERGY: 840 170.2935 652.0383 2823.2005 0.0000 -203452.8145 22760.7754 51.5187 0.0000 0.0000 -176994.9881 0.0000 -176994.9881 -176994.9881 0.0000 16825.7038 -4698.4280 534946.2959 16825.7038 -4698.4280
ENERGY: 860 195.9068 672.5625 2822.5199 0.0000 -203938.5247 22964.4275 54.1319 0.0000 0.0000 -177228.9761 0.0000 -177228.9761 -177228.9761 0.0000 16918.0155 -4665.6538 534946.2959 16918.0155 -4665.6538
ENERGY: 880 203.2014 661.0163 2817.1161 0.0000 -204460.0478 23200.6639 56.1277 0.0000 0.0000 -177521.9225 0.0000 -177521.9225 -177521.9225 0.0000 17054.9058 -4589.0139 534946.2959 17054.9058 -4589.0139
ENERGY: 900 180.3138 653.8459 2812.7891 0.0000 -205278.3444 23593.0926 60.8346 0.0000 0.0000 -177977.4684 0.0000 -177977.4684 -177977.4684 0.0000 17265.3128 -4474.4633 534946.2959 17265.3128 -4474.4633
TCL: Setting parameter constraintScaling to 0.01953125
TCL: Minimizing for 100 steps
ETITLE: TS BOND ANGLE DIHED IMPRP ELECT VDW BOUNDARY MISC KINETIC TOTAL TEMP POTENTIAL TOTAL3 TEMPAVG PRESSURE GPRESSURE VOLUME PRESSAVG GPRESSAVG
ENERGY: 900 180.3138 653.8459 2812.7891 0.0000 -205278.3444 23593.0926 30.4173 0.0000 0.0000 -178007.8857 0.0000 -178007.8857 -178007.8857 0.0000 17290.0169 -27273.1988 534946.2959 17290.0169 -27273.1988
ENERGY: 920 348.1128 713.9211 2811.3792 0.0000 -205527.9997 23680.4775 31.7920 0.0000 0.0000 -177942.3172 0.0000 -177942.3172 -177942.3172 0.0000 17297.4568 -4472.5616 534946.2959 17297.4568 -4472.5616
ENERGY: 940 296.1707 676.8601 2809.9082 0.0000 -205794.0981 23794.4981 32.8269 0.0000 0.0000 -178183.8342 0.0000 -178183.8342 -178183.8342 0.0000 17361.0205 -4442.7429 534946.2959 17361.0205 -4442.7429
ENERGY: 960 164.4646 652.0717 2808.8759 0.0000 -205849.8512 23813.7168 32.9421 0.0000 0.0000 -178377.7802 0.0000 -178377.7802 -178377.7802 0.0000 17394.8642 -4414.1959 534946.2959 17394.8642 -4414.1959
ENERGY: 980 182.4161 654.6640 2807.7843 0.0000 -206153.9325 23944.3390 33.6606 0.0000 0.0000 -178531.0685 0.0000 -178531.0685 -178531.0685 0.0000 17481.2201 -4367.6316 534946.2959 17481.2201 -4367.6316
ENERGY: 1000 164.6809 651.1429 2806.2634 0.0000 -206414.9448 24069.8162 34.6018 0.0000 0.0000 -178688.4396 0.0000 -178688.4396 -178688.4396 0.0000 17526.6602 -4344.7077 534946.2959 17526.6602 -4344.7077
TCL: Setting parameter constraintScaling to 0
TCL: Minimizing for 5000 steps
ETITLE: TS BOND ANGLE DIHED IMPRP ELECT VDW BOUNDARY MISC KINETIC TOTAL TEMP POTENTIAL TOTAL3 TEMPAVG PRESSURE GPRESSURE VOLUME PRESSAVG GPRESSAVG
ENERGY: 1000 164.6809 651.1429 2806.2634 0.0000 -206414.9447 24069.8162 0.0000 0.0000 0.0000 -178723.0414 0.0000 -178723.0414 -178723.0414 0.0000 17553.4768 -27276.1330 534946.2959 17553.4768 -27276.1330
ENERGY: 2000 167.5205 670.1890 2805.0883 0.0000 -214945.7347 27994.0739 0.0000 0.0000 0.0000 -183308.8631 0.0000 -183308.8631 -183308.8631 0.0000 19676.1444 -3155.4993 534946.2959 19676.1444 -3155.4993
ENERGY: 3000 172.9865 665.3578 2798.7977 0.0000 -217592.3117 28930.0657 0.0000 0.0000 0.0000 -185025.1040 0.0000 -185025.1040 -185025.1040 0.0000 20135.0398 -2953.2517 534946.2959 20135.0398 -2953.2517
ENERGY: 4000 165.5943 661.6623 2794.2787 0.0000 -218843.5037 29447.8901 0.0000 0.0000 0.0000 -185774.0784 0.0000 -185774.0784 -185774.0784 0.0000 20417.5088 -2810.2534 534946.2959 20417.5088 -2810.2534
ENERGY: 5000 165.2287 661.4657 2790.7390 0.0000 -219653.8757 29807.1872 0.0000 0.0000 0.0000 -186229.2550 0.0000 -186229.2550 -186229.2550 0.0000 20598.3794 -2709.2192 534946.2959 20598.3794 -2709.2192
ENERGY: 6000 164.5493 661.7381 2790.6256 0.0000 -219993.5037 29936.3626 0.0000 0.0000 0.0000 -186440.2281 0.0000 -186440.2281 -186440.2281 0.0000 20672.6969 -2669.5060 534946.2959 20672.6969 -2669.5060
