Info: SIMULATION PARAMETERS:
Info: TIMESTEP               1
Info: NUMBER OF STEPS        0
Info: STEPS PER CYCLE        10
Info: PERIODIC CELL BASIS 1  72.449 0 0
Info: PERIODIC CELL BASIS 2  0 93.247 0
Info: PERIODIC CELL BASIS 3  0 0 79.185
Info: PERIODIC CELL CENTER   -0.248 -0.156 -0.047
Info: WRAPPING WATERS AROUND PERIODIC BOUNDARIES ON OUTPUT.
Info: WRAPPING ALL CLUSTERS AROUND PERIODIC BOUNDARIES ON OUTPUT.
Info: FIRST LDB TIMESTEP     50
Info: LAST LDB TIMESTEP     -1
Info: HOM BACKGROUND SCALING 1
Info: PME BACKGROUND SCALING 1
Info: MIN ATOMS PER PATCH    40
Info: VELOCITY FILE          ../replicas/rep107/equilibration/eq1.vel
Info: CENTER OF MASS MOVING INITIALLY? NO
Info: DIELECTRIC             1
Info: EXCLUDE                SCALED ONE-FOUR
Info: 1-4 ELECTROSTATICS SCALED BY 0.833333
Info: MODIFIED 1-4 VDW PARAMETERS WILL BE USED
Info: DCD FILENAME           ../replicas/rep107/equilibration/eq2.dcd
Info: DCD FREQUENCY          5000
Info: DCD FIRST STEP         5000
Info: DCD FILE WILL CONTAIN UNIT CELL DATA
Info: XST FILENAME           ../replicas/rep107/equilibration/eq2.xst
Info: XST FREQUENCY          5000
Info: NO VELOCITY DCD OUTPUT
Info: NO FORCE DCD OUTPUT
Info: OUTPUT FILENAME        ../replicas/rep107/equilibration/eq2
Info: RESTART FILENAME       ../replicas/rep107/equilibration/eq2.restart
Info: RESTART FREQUENCY      5000
Info: BINARY RESTART FILES WILL BE USED
Info: SWITCHING ACTIVE
Info: SWITCHING ON           10
Info: SWITCHING OFF          12
Info: PAIRLIST DISTANCE      13.5
Info: PAIRLIST SHRINK RATE   0.01
Info: PAIRLIST GROW RATE     0.01
Info: PAIRLIST TRIGGER       0.3
Info: PAIRLISTS PER CYCLE    2
Info: PAIRLISTS ENABLED
Info: MARGIN                 0.48
Info: HYDROGEN GROUP CUTOFF  2.5
Info: PATCH DIMENSION        16.48
Info: ENERGY OUTPUT STEPS    500
Info: CROSSTERM ENERGY INCLUDED IN DIHEDRAL
Info: TIMING OUTPUT STEPS    5000
Info: PRESSURE OUTPUT STEPS  500
Info: HARMONIC CONSTRAINTS ACTIVE
Info: HARMONIC CONS EXP      2
Info: HARMONIC CONS SCALING  10
Info: LANGEVIN DYNAMICS ACTIVE
Info: LANGEVIN TEMPERATURE   300
Info: LANGEVIN USING BBK INTEGRATOR
Info: LANGEVIN DAMPING COEFFICIENT IS 5 INVERSE PS
Info: LANGEVIN DYNAMICS NOT APPLIED TO HYDROGENS
Info: BERENDSEN PRESSURE COUPLING ACTIVE
Info:     TARGET PRESSURE IS 1 BAR
Info:     COMPRESSIBILITY ESTIMATE IS 4.57e-05 BAR^(-1)
Info:     RELAXATION TIME IS 100 FS
Info:     APPLIED EVERY 2 STEPS
Info:     PRESSURE CONTROL IS GROUP-BASED
Info:       CELL FLUCTUATION IS ISOTROPIC
Info: PARTICLE MESH EWALD (PME) ACTIVE
Info: PME TOLERANCE               1e-06
Info: PME EWALD COEFFICIENT       0.257952
Info: PME INTERPOLATION ORDER     4
Info: PME GRID DIMENSIONS         80 96 80
Info: PME MAXIMUM GRID SPACING    1
Info: FULL ELECTROSTATIC EVALUATION FREQUENCY      2
Info: USING VERLET I (r-RESPA) MTS SCHEME.
Info: C1 SPLITTING OF LONG RANGE ELECTROSTATICS
Info: PLACING ATOMS IN PATCHES BY HYDROGEN GROUPS
Info: RIGID BONDS TO HYDROGEN : WATER
Info:         ERROR TOLERANCE : 1e-05
Info:          MAX ITERATIONS : 100
Info: RIGID WATER USING SETTLE ALGORITHM
Info: RANDOM NUMBER SEED     1503709767
Info: USE HYDROGEN BONDS?    NO
Info: Using AMBER format force field!
Info: AMBER PARM FILE        ../build/complex.top
Info: COORDINATE PDB         ../replicas/rep107/equilibration/eq1.coor
Info: Exclusions in PARM file will be ignored!
Info: SCNB (VDW SCALING)     2
Info: USING ARITHMETIC MEAN TO COMBINE L-J SIGMA PARAMETERS
Info: SUMMARY OF PARAMETERS:
Info: 71 BONDS
Info: 145 ANGLES
Info: 76 DIHEDRAL
Info: 0 IMPROPER
Info: 0 CROSSTERM
Info: 0 VDW
Info: 190 VDW_PAIRS
Info: 0 NBTHOLE_PAIRS
Info: STRUCTURE SUMMARY:
Info: 49394 ATOMS
Info: 49448 BONDS
Info: 8698 ANGLES
Info: 18780 DIHEDRALS
Info: 0 IMPROPERS
Info: 0 CROSSTERMS
Info: 0 EXCLUSIONS
Info: 2336 CONSTRAINTS
Info: 44667 RIGID BONDS
Info: 103515 DEGREES OF FREEDOM
Info: 17225 HYDROGEN GROUPS
Info: 4 ATOMS IN LARGEST HYDROGEN GROUP
Info: 17225 MIGRATION GROUPS
Info: 4 ATOMS IN LARGEST MIGRATION GROUP
Info: TOTAL MASS = 301478 amu
Info: TOTAL CHARGE = 1.00115e-05 e
Info: MASS DENSITY = 0.935846 g/cm^3
Info: ATOM DENSITY = 0.0923345 atoms/A^3
Info: ADDED 70656 IMPLICIT EXCLUSIONS
Info: NONBONDED TABLE R-SQUARED SPACING: 0.0625
Info: NONBONDED TABLE SIZE: 769 POINTS
Info: REMOVING COM VELOCITY -0.0115633 -0.0110521 -0.0019992
TCL: Running for 5000 steps
ETITLE: TS BOND ANGLE DIHED IMPRP ELECT VDW BOUNDARY MISC KINETIC TOTAL TEMP POTENTIAL TOTAL3 TEMPAVG PRESSURE GPRESSURE VOLUME PRESSAVG GPRESSAVG
ENERGY: 0 386.8974 1218.7777 2933.9571 0.0000 -212654.2833 29533.6187 0.0000 0.0000 10045.4739 -168535.5584 97.6692 -178581.0323 -168525.9205 97.6692 -2416.1056 -2521.7911 534946.2959 -2416.1056 -2521.7911
ENERGY: 1000 1252.0118 1995.3835 3117.5311 0.0000 -193659.7275 26399.8636 777.6349 0.0000 23903.9407 -136213.3620 232.4110 -160117.3027 -136184.5363 217.8796 -44.1290 -19.1976 521433.5204 -15.2534 -15.3108
ENERGY: 2000 1423.2396 2126.2140 3134.0504 0.0000 -183979.2199 23023.9567 779.8473 0.0000 28095.8397 -125396.0721 273.1676 -153491.9119 -125358.2205 264.4335 -93.4915 -22.9538 514384.5341 -34.2987 -33.8584
ENERGY: 3000 1514.6211 2238.5109 3164.1213 0.0000 -179259.4890 21684.1644 818.7599 0.0000 29527.5786 -120311.7328 287.0879 -149839.3113 -120262.4380 284.9460 -23.8637 -9.3152 509838.2199 -14.6335 -14.2302
ENERGY: 4000 1553.9544 2227.5147 3163.5645 0.0000 -176935.5845 20652.2003 834.3212 0.0000 30394.2701 -118109.7593 295.5145 -148504.0294 -118072.8212 293.5320 18.1652 8.0859 507258.0406 -15.1089 -15.2529
ENERGY: 5000 1585.7625 2249.5789 3159.6841 0.0000 -175771.0128 20380.6557 840.9035 0.0000 30541.1391 -117013.2890 296.9425 -147554.4280 -116972.6028 296.5724 43.1746 1.8239 506640.4341 10.5844 10.6905
TCL: Setting parameter constraintScaling to 5.0
TCL: Running for 5000 steps
ETITLE: TS BOND ANGLE DIHED IMPRP ELECT VDW BOUNDARY MISC KINETIC TOTAL TEMP POTENTIAL TOTAL3 TEMPAVG PRESSURE GPRESSURE VOLUME PRESSAVG GPRESSAVG
ENERGY: 5000 1585.7625 2249.5789 3159.6841 0.0000 -175771.0128 20380.6557 420.4518 0.0000 30539.0727 -117435.8071 296.9224 -147974.8798 -117395.4221 296.9224 -61.5107 -97.5514 506640.4341 -61.5107 -97.5514
ENERGY: 6000 1625.7597 2338.2934 3173.9966 0.0000 -175648.3685 20163.6654 660.3984 0.0000 30558.1173 -117128.1377 297.1076 -147686.2550 -117081.9561 298.3759 -58.0772 -41.9940 507222.9523 4.9770 5.0993
ENERGY: 7000 1685.3421 2323.5956 3159.7795 0.0000 -175750.8962 20110.1400 650.3238 0.0000 30794.3395 -117027.3759 299.4043 -147821.7153 -116983.5080 298.6248 -21.0651 48.6438 502160.2661 -4.9781 -4.7572
ENERGY: 8000 1613.6891 2338.6719 3166.9312 0.0000 -175768.9287 20197.0784 641.9496 0.0000 30845.7494 -116964.8591 299.9041 -147810.6085 -116923.8809 298.7139 -35.9139 22.3768 501755.7937 4.6043 4.0695
ENERGY: 9000 1598.3619 2279.9667 3164.6332 0.0000 -175603.5632 20045.7381 633.4331 0.0000 30694.1124 -117187.3178 298.4298 -147881.4302 -117149.9047 297.9446 -99.6095 18.1993 501746.0318 -0.6673 -1.5658
ENERGY: 10000 1608.4379 2259.2648 3176.3647 0.0000 -175928.6320 20149.8615 654.8344 0.0000 30880.1556 -117199.7130 300.2386 -148079.8686 -117157.2436 298.5712 16.8067 39.1828 501633.9174 -5.4491 -5.2781
TCL: Setting parameter constraintScaling to 2.5
TCL: Running for 5000 steps
ETITLE: TS BOND ANGLE DIHED IMPRP ELECT VDW BOUNDARY MISC KINETIC TOTAL TEMP POTENTIAL TOTAL3 TEMPAVG PRESSURE GPRESSURE VOLUME PRESSAVG GPRESSAVG
ENERGY: 10000 1608.4379 2259.2648 3176.3647 0.0000 -175928.6320 20149.8615 327.4172 0.0000 30878.1181 -117529.1678 300.2188 -148407.2858 -117483.3457 300.2188 -132.3860 -99.4057 501633.9174 -132.3860 -99.4057
ENERGY: 11000 1621.1440 2340.6607 3167.2139 0.0000 -175910.8397 20044.9827 504.2988 0.0000 30505.2226 -117727.3170 296.5933 -148232.5396 -117677.8736 298.0344 -5.8655 36.6813 502459.4255 8.4200 8.6598
ENERGY: 12000 1614.6391 2323.6189 3185.5287 0.0000 -175912.6834 20213.3848 505.9194 0.0000 30737.8596 -117331.7329 298.8551 -148069.5925 -117284.0937 297.8247 -72.8576 49.3110 501278.4986 -12.8041 -12.1707
ENERGY: 13000 1561.7305 2342.3525 3202.9491 0.0000 -176254.5284 20287.9401 520.9451 0.0000 30768.6983 -117569.9128 299.1550 -148338.6111 -117516.6539 298.2709 -49.3688 -11.5174 501731.4093 11.4166 11.1362
ENERGY: 14000 1536.8420 2333.2200 3183.4827 0.0000 -175593.1575 20261.1239 508.1346 0.0000 30546.6221 -117223.7323 296.9958 -147770.3544 -117176.0912 299.1694 -61.7310 -17.5258 501249.8838 8.4001 7.8481
ENERGY: 15000 1627.2221 2382.1453 3179.1330 0.0000 -175403.7944 19768.4807 492.1682 0.0000 30598.9444 -117355.7007 297.5045 -147954.6451 -117299.4918 299.3237 81.2215 13.4687 499627.4180 -7.0670 -7.1480
TCL: Setting parameter constraintScaling to 1.25
TCL: Running for 5000 steps
ETITLE: TS BOND ANGLE DIHED IMPRP ELECT VDW BOUNDARY MISC KINETIC TOTAL TEMP POTENTIAL TOTAL3 TEMPAVG PRESSURE GPRESSURE VOLUME PRESSAVG GPRESSAVG
ENERGY: 15000 1627.2221 2382.1453 3179.1330 0.0000 -175403.7944 19768.4807 246.0841 0.0000 30596.8803 -117603.8489 297.4844 -148200.7292 -117561.0884 297.4844 5.0000 -63.0792 499627.4180 5.0000 -63.0792
ENERGY: 16000 1652.8299 2440.2441 3182.5156 0.0000 -175392.0574 19789.7849 400.2454 0.0000 30855.4551 -117070.9824 299.9985 -147926.4375 -117019.7341 299.5025 -36.7697 10.6907 499760.7347 11.9798 11.9955
ENERGY: 17000 1592.8545 2314.7670 3160.0397 0.0000 -175947.7903 20132.6177 380.7637 0.0000 30697.1533 -117669.5944 298.4594 -148366.7477 -117620.9303 298.7517 8.0382 35.9793 499538.9389 5.7046 5.9302
ENERGY: 18000 1623.8643 2424.2117 3171.9847 0.0000 -175839.1153 20061.1164 391.9971 0.0000 30954.7675 -117211.1736 300.9641 -148165.9411 -117159.2354 299.5460 -36.3001 -12.0338 498731.1969 -0.1941 -0.4528
ENERGY: 19000 1683.0000 2364.1721 3194.1047 0.0000 -175404.9560 19923.4392 382.2603 0.0000 30839.3946 -117018.5851 299.8423 -147857.9797 -116973.4093 299.5824 -27.1255 3.6058 499226.3929 3.1845 3.9518
ENERGY: 20000 1651.0508 2429.0329 3182.4231 0.0000 -175795.2102 20027.9828 386.9055 0.0000 30716.0445 -117401.7706 298.6430 -148117.8151 -117355.8436 298.8843 -9.2585 -3.7360 499324.3638 -9.6025 -9.4665
TCL: Setting parameter constraintScaling to 0.625
TCL: Running for 5000 steps
ETITLE: TS BOND ANGLE DIHED IMPRP ELECT VDW BOUNDARY MISC KINETIC TOTAL TEMP POTENTIAL TOTAL3 TEMPAVG PRESSURE GPRESSURE VOLUME PRESSAVG GPRESSAVG
ENERGY: 20000 1651.0508 2429.0329 3182.4231 0.0000 -175795.2102 20027.9828 193.4527 0.0000 30713.9935 -117597.2743 298.6231 -148311.2678 -117554.6229 298.6231 -54.4994 -52.3208 499324.3638 -54.4994 -52.3208
ENERGY: 21000 1573.0848 2357.9277 3217.8273 0.0000 -175881.9913 20127.1389 313.4060 0.0000 30624.4563 -117668.1502 297.7525 -148292.6066 -117628.5214 298.9225 -56.8945 -44.2546 498776.3684 9.9967 10.2790
ENERGY: 22000 1635.1151 2325.8321 3194.8085 0.0000 -175902.2678 20072.4649 306.6795 0.0000 30651.1832 -117716.1846 298.0124 -148367.3678 -117672.0712 298.0648 -154.9818 -80.3904 499737.1518 11.5651 11.3631
ENERGY: 23000 1633.3662 2395.4777 3200.3818 0.0000 -175974.6493 20323.2767 312.8570 0.0000 30424.0266 -117685.2633 295.8038 -148109.2899 -117638.9346 298.9088 -16.5198 -26.3798 498333.0332 -5.6029 -5.6192
ENERGY: 24000 1635.9651 2284.5145 3184.2921 0.0000 -175894.0188 20056.7954 302.8482 0.0000 30875.9707 -117553.6329 300.1979 -148429.6036 -117508.6039 298.2429 -107.1337 -61.8145 497511.5297 3.6617 3.3421
ENERGY: 25000 1616.0700 2408.5582 3182.8557 0.0000 -175578.8800 19982.6573 316.0109 0.0000 30931.4714 -117141.2565 300.7376 -148072.7279 -117094.6676 300.1467 10.2975 23.6514 497579.5349 1.3188 1.3804
TCL: Setting parameter constraintScaling to 0.3125
TCL: Running for 5000 steps
ETITLE: TS BOND ANGLE DIHED IMPRP ELECT VDW BOUNDARY MISC KINETIC TOTAL TEMP POTENTIAL TOTAL3 TEMPAVG PRESSURE GPRESSURE VOLUME PRESSAVG GPRESSAVG
ENERGY: 25000 1616.0700 2408.5582 3182.8557 0.0000 -175578.8800 19982.6573 158.0054 0.0000 30929.4213 -117301.3120 300.7176 -148230.7333 -117252.6358 300.7176 17.0770 27.4780 497579.5349 17.0770 27.4780
ENERGY: 26000 1696.8870 2379.2888 3178.3947 0.0000 -175844.2195 20095.9984 251.0849 0.0000 30961.3251 -117281.2406 301.0278 -148242.5657 -117234.9721 299.7985 -60.6955 -43.2912 498596.3459 11.5667 11.9861
ENERGY: 27000 1693.5472 2383.4828 3200.3808 0.0000 -175967.5998 20346.6992 261.8206 0.0000 30641.2858 -117440.3835 297.9162 -148081.6692 -117407.0727 299.4550 79.4375 16.8730 497264.6757 -4.4606 -4.6857
ENERGY: 28000 1644.1834 2327.4554 3181.5941 0.0000 -175757.8289 20139.0028 265.8038 0.0000 31071.1648 -117128.6246 302.0958 -148199.7894 -117086.2723 300.5157 33.7882 14.1756 498250.6338 9.2280 9.8239
ENERGY: 29000 1669.3332 2373.3543 3219.0026 0.0000 -176029.0247 20084.8761 261.6772 0.0000 30758.6050 -117662.1763 299.0568 -148420.7812 -117617.3026 299.8715 -58.5949 22.3773 497003.5539 -9.0443 -9.0310
ENERGY: 30000 1566.9637 2425.5058 3232.0790 0.0000 -175839.3883 20084.4657 274.3154 0.0000 30706.0373 -117550.0214 298.5457 -148256.0587 -117493.7371 299.4873 34.6784 66.5354 499387.8262 25.9112 25.8994
TCL: Setting parameter constraintScaling to 0.15625
TCL: Running for 5000 steps
ETITLE: TS BOND ANGLE DIHED IMPRP ELECT VDW BOUNDARY MISC KINETIC TOTAL TEMP POTENTIAL TOTAL3 TEMPAVG PRESSURE GPRESSURE VOLUME PRESSAVG GPRESSAVG
ENERGY: 30000 1566.9637 2425.5058 3232.0790 0.0000 -175839.3883 20084.4657 137.1577 0.0000 30704.0014 -117689.2150 298.5259 -148393.2164 -117647.2649 298.5259 27.7582 64.8749 499387.8262 27.7582 64.8749
ENERGY: 31000 1619.4594 2466.9280 3222.7227 0.0000 -176147.5504 20252.3846 202.0417 0.0000 30937.4679 -117446.5461 300.7959 -148384.0140 -117399.5378 299.6658 -34.2102 -7.5877 498184.3400 -5.1569 -4.3981
ENERGY: 32000 1593.1926 2443.2703 3201.9917 0.0000 -175895.2471 20243.5826 204.3582 0.0000 30740.5078 -117468.3439 298.8809 -148208.8517 -117418.0742 300.4667 -50.9261 54.2096 499379.3328 14.5105 14.8171
ENERGY: 33000 1620.8623 2450.4095 3225.3526 0.0000 -176078.9867 20183.8302 217.4985 0.0000 30776.3344 -117604.6993 299.2292 -148381.0338 -117559.9031 299.4278 -132.9124 -37.5532 497666.0102 -8.8459 -8.4944
ENERGY: 34000 1630.3318 2401.2157 3203.6147 0.0000 -175683.1683 19954.6384 220.5560 0.0000 30931.3947 -117341.4170 300.7368 -148272.8117 -117283.6757 300.9302 61.6027 35.8403 497119.3396 1.9135 1.5213
ENERGY: 35000 1660.6282 2364.8819 3215.9314 0.0000 -175907.2379 20132.4010 216.0674 0.0000 30780.9157 -117536.4123 299.2738 -148317.3280 -117495.1559 299.6302 -41.9557 45.1394 497867.1921 -3.4141 -3.9309
TCL: Setting parameter constraintScaling to 0.078125
TCL: Running for 5000 steps
ETITLE: TS BOND ANGLE DIHED IMPRP ELECT VDW BOUNDARY MISC KINETIC TOTAL TEMP POTENTIAL TOTAL3 TEMPAVG PRESSURE GPRESSURE VOLUME PRESSAVG GPRESSAVG
ENERGY: 35000 1660.6282 2364.8819 3215.9314 0.0000 -175907.2379 20132.4010 108.0337 0.0000 30778.8687 -117646.4930 299.2539 -148425.3617 -117602.6123 299.2539 -40.0922 48.5672 497867.1921 -40.0922 48.5672
ENERGY: 36000 1595.4157 2385.7019 3202.1271 0.0000 -176102.3404 20326.1185 157.2630 0.0000 30851.5214 -117584.1928 299.9602 -148435.7141 -117547.1817 299.2690 -27.5397 -64.1095 498292.2293 4.5389 4.9433
ENERGY: 37000 1589.0033 2415.1623 3200.5810 0.0000 -175880.9359 20028.9513 157.2508 0.0000 30883.7407 -117606.2465 300.2735 -148489.9873 -117550.7681 300.3024 -185.2171 -60.4769 498611.5882 -9.2381 -9.0571
ENERGY: 38000 1613.2538 2409.3876 3218.5645 0.0000 -175566.1791 19823.9468 173.2013 0.0000 30746.9075 -117580.9176 298.9431 -148327.8251 -117532.3187 300.0108 -138.9105 -120.5468 497289.0695 -2.7761 -2.5338
ENERGY: 39000 1626.1049 2398.1549 3205.3488 0.0000 -175189.9838 19901.8525 167.2718 0.0000 30673.6350 -117217.6160 298.2307 -147891.2510 -117174.2650 300.0313 10.1452 61.1308 499685.3066 12.2927 12.7814
ENERGY: 40000 1611.3696 2380.3316 3196.7227 0.0000 -175943.2095 20104.2767 172.9608 0.0000 30874.8346 -117602.7136 300.1869 -148477.5482 -117562.6638 298.9035 79.7926 70.6276 497483.1144 -11.8974 -11.6032
TCL: Setting parameter constraintScaling to 0.0390625
TCL: Running for 5000 steps
ETITLE: TS BOND ANGLE DIHED IMPRP ELECT VDW BOUNDARY MISC KINETIC TOTAL TEMP POTENTIAL TOTAL3 TEMPAVG PRESSURE GPRESSURE VOLUME PRESSAVG GPRESSAVG
ENERGY: 40000 1611.3696 2380.3316 3196.7227 0.0000 -175943.2095 20104.2767 86.4804 0.0000 30872.8012 -117691.2273 300.1671 -148564.0286 -117648.2184 300.1671 50.8294 44.9196 497483.1144 50.8294 44.9196
ENERGY: 41000 1657.0142 2371.6815 3212.8773 0.0000 -175949.3924 19976.6372 120.1251 0.0000 30764.5229 -117846.5342 299.1144 -148611.0570 -117803.1127 299.8932 -20.1758 -4.9220 496586.6873 -0.2004 -0.5846
ENERGY: 42000 1675.3190 2392.4829 3189.3619 0.0000 -176235.8492 20232.4322 115.6112 0.0000 30753.0442 -117877.5980 299.0028 -148630.6422 -117823.2772 299.1883 -14.3668 1.4449 496724.1924 -8.8272 -8.5351
ENERGY: 43000 1611.8951 2395.9012 3183.1885 0.0000 -176123.4129 20062.6369 115.4252 0.0000 31128.0525 -117626.3136 302.6489 -148754.3661 -117580.2166 298.8020 21.7582 100.4957 494966.5316 -23.2712 -23.2218
ENERGY: 44000 1632.5747 2454.5624 3226.4127 0.0000 -175867.3591 19934.0480 124.9639 0.0000 30798.7591 -117696.0382 299.4472 -148494.7973 -117661.0899 300.0337 6.9325 -52.1401 497320.1088 18.5385 19.6213
ENERGY: 45000 1643.1671 2425.2800 3188.4371 0.0000 -175777.7935 20095.9703 126.1104 0.0000 30505.5163 -117793.3124 296.5961 -148298.8286 -117750.0905 299.9030 22.1770 94.9308 497023.0237 -8.9283 -10.0345
TCL: Setting parameter constraintScaling to 0.01953125
TCL: Running for 5000 steps
ETITLE: TS BOND ANGLE DIHED IMPRP ELECT VDW BOUNDARY MISC KINETIC TOTAL TEMP POTENTIAL TOTAL3 TEMPAVG PRESSURE GPRESSURE VOLUME PRESSAVG GPRESSAVG
ENERGY: 45000 1643.1671 2425.2800 3188.4371 0.0000 -175777.7935 20095.9703 63.0552 0.0000 30503.4604 -117858.4234 296.5761 -148361.8838 -117815.3939 296.5761 -5.5174 67.7837 497023.0237 -5.5174 67.7837
ENERGY: 46000 1672.1927 2497.0559 3222.6728 0.0000 -175978.2748 19971.9827 78.4412 0.0000 30756.8349 -117779.0945 299.0396 -148535.9295 -117743.3661 299.8735 23.6271 48.1337 495789.2887 -9.9359 -9.9622
ENERGY: 47000 1654.3648 2423.0062 3208.5705 0.0000 -176000.5632 20148.6027 85.7732 0.0000 30661.3368 -117818.9091 298.1111 -148480.2459 -117777.7601 298.7326 49.7299 104.5538 495496.8682 4.4924 4.7314
ENERGY: 48000 1629.3066 2412.1771 3213.2971 0.0000 -175596.6917 20040.3199 83.9050 0.0000 30852.2568 -117365.4292 299.9674 -148217.6860 -117318.1994 300.6386 -43.7798 -5.9096 497288.2541 8.9670 9.0185
ENERGY: 49000 1648.5019 2390.9304 3234.7874 0.0000 -176191.9845 20192.7465 89.7119 0.0000 30758.6242 -117876.6821 299.0570 -148635.3063 -117843.1461 299.7048 -23.8396 43.5198 497614.6433 -9.4000 -8.5085
ENERGY: 50000 1608.6690 2345.6225 3174.9596 0.0000 -176058.2412 20140.7006 92.4105 0.0000 30735.9639 -117959.9150 298.8367 -148695.8789 -117921.9550 299.2124 -75.9319 -44.6998 497397.1324 0.5823 -0.0195
TCL: Setting parameter constraintScaling to 0
TCL: Running for 5000 steps
ETITLE: TS BOND ANGLE DIHED IMPRP ELECT VDW BOUNDARY MISC KINETIC TOTAL TEMP POTENTIAL TOTAL3 TEMPAVG PRESSURE GPRESSURE VOLUME PRESSAVG GPRESSAVG
ENERGY: 50000 1608.6690 2345.6225 3174.9596 0.0000 -176058.2412 20140.7006 0.0000 0.0000 30733.9023 -118054.3872 298.8167 -148788.2895 -118007.1095 298.8167 -73.1159 -50.9608 497397.1324 -73.1159 -50.9608
ENERGY: 51000 1624.8655 2391.9350 3219.1481 0.0000 -176184.4924 20165.7306 0.0000 0.0000 30705.4364 -118077.3769 298.5399 -148782.8133 -118038.2729 298.1343 30.0018 -2.7400 497043.8155 -1.3129 -1.2059
ENERGY: 52000 1694.1393 2411.3920 3200.7217 0.0000 -176597.0982 20377.4934 0.0000 0.0000 30781.8278 -118131.5240 299.2826 -148913.3518 -118079.0380 298.8034 -53.8391 -7.5511 496490.5899 0.7200 0.6895
ENERGY: 53000 1658.8149 2412.8247 3185.3888 0.0000 -175838.7343 20040.3413 0.0000 0.0000 30665.9247 -117875.4399 298.1557 -148541.3646 -117832.0893 300.0934 34.2760 20.8225 496999.8593 -2.6596 -2.2639
ENERGY: 54000 1674.6559 2377.7681 3196.8648 0.0000 -175668.0969 19963.7851 0.0000 0.0000 30912.6686 -117542.3544 300.5547 -148455.0230 -117494.8764 300.5460 42.1305 16.9348 496988.9861 2.5539 2.4891
ENERGY: 55000 1651.6277 2387.3433 3211.4760 0.0000 -175606.8867 20013.0252 0.0000 0.0000 30613.6683 -117729.7462 297.6477 -148343.4145 -117691.3414 299.4483 -53.4490 -8.3018 497606.0013 18.0078 18.2872
