Info: SIMULATION PARAMETERS:
Info: TIMESTEP               2
Info: NUMBER OF STEPS        0
Info: STEPS PER CYCLE        10
Info: PERIODIC CELL BASIS 1  72.449 0 0
Info: PERIODIC CELL BASIS 2  0 93.247 0
Info: PERIODIC CELL BASIS 3  0 0 79.185
Info: PERIODIC CELL CENTER   -0.248 -0.156 -0.047
Info: WRAPPING WATERS AROUND PERIODIC BOUNDARIES ON OUTPUT.
Info: WRAPPING ALL CLUSTERS AROUND PERIODIC BOUNDARIES ON OUTPUT.
Info: FIRST LDB TIMESTEP     50
Info: LAST LDB TIMESTEP     -1
Info: HOM BACKGROUND SCALING 1
Info: PME BACKGROUND SCALING 1
Info: MIN ATOMS PER PATCH    40
Info: INITIAL TEMPERATURE    0
Info: CENTER OF MASS MOVING INITIALLY? NO
Info: DIELECTRIC             1
Info: EXCLUDE                SCALED ONE-FOUR
Info: 1-4 ELECTROSTATICS SCALED BY 0.833333
Info: MODIFIED 1-4 VDW PARAMETERS WILL BE USED
Info: NO DCD TRAJECTORY OUTPUT
Info: NO EXTENDED SYSTEM TRAJECTORY OUTPUT
Info: NO VELOCITY DCD OUTPUT
Info: NO FORCE DCD OUTPUT
Info: OUTPUT FILENAME        ../replicas/rep21/equilibration/eq0
Info: NO RESTART FILE
Info: SWITCHING ACTIVE
Info: SWITCHING ON           10
Info: SWITCHING OFF          12
Info: PAIRLIST DISTANCE      13.5
Info: PAIRLIST SHRINK RATE   0.01
Info: PAIRLIST GROW RATE     0.01
Info: PAIRLIST TRIGGER       0.3
Info: PAIRLISTS PER CYCLE    2
Info: PAIRLISTS ENABLED
Info: MARGIN                 0
Info: HYDROGEN GROUP CUTOFF  2.5
Info: PATCH DIMENSION        16
Info: ENERGY OUTPUT STEPS    500
Info: CROSSTERM ENERGY INCLUDED IN DIHEDRAL
Info: TIMING OUTPUT STEPS    5000
Info: PRESSURE OUTPUT STEPS  500
Info: HARMONIC CONSTRAINTS ACTIVE
Info: HARMONIC CONS EXP      2
Info: HARMONIC CONS SCALING  10
Info: CONJUGATE GRADIENT MINIMIZATION ACTIVE
Info: LINE MINIMIZATION GOAL = 0.001
Info: BABY STEP SIZE = 0.01
Info: TINY STEP SIZE = 1e-06
Info: PARTICLE MESH EWALD (PME) ACTIVE
Info: PME TOLERANCE               1e-06
Info: PME EWALD COEFFICIENT       0.257952
Info: PME INTERPOLATION ORDER     4
Info: PME GRID DIMENSIONS         80 96 80
Info: PME MAXIMUM GRID SPACING    1
Info: FULL ELECTROSTATIC EVALUATION FREQUENCY      2
Info: USING VERLET I (r-RESPA) MTS SCHEME.
Info: C1 SPLITTING OF LONG RANGE ELECTROSTATICS
Info: PLACING ATOMS IN PATCHES BY HYDROGEN GROUPS
Info: RIGID BONDS TO HYDROGEN : ALL
Info:         ERROR TOLERANCE : 1e-05
Info:          MAX ITERATIONS : 100
Info: RIGID WATER USING SETTLE ALGORITHM
Info: RANDOM NUMBER SEED     1503692482
Info: USE HYDROGEN BONDS?    NO
Info: Using AMBER format force field!
Info: AMBER PARM FILE        ../build/complex.top
Info: COORDINATE PDB         ../build/complex.pdb
Info: Exclusions in PARM file will be ignored!
Info: SCNB (VDW SCALING)     2
Info: USING ARITHMETIC MEAN TO COMBINE L-J SIGMA PARAMETERS
Info: SUMMARY OF PARAMETERS:
Info: 71 BONDS
Info: 145 ANGLES
Info:   145 HARMONIC
Info:   0 COSINE-BASED
Info: 76 DIHEDRAL
Info: 0 IMPROPER
Info: 0 CROSSTERM
Info: 0 VDW
Info: 190 VDW_PAIRS
Info: 0 NBTHOLE_PAIRS
Info: STRUCTURE SUMMARY:
Info: 49394 ATOMS
Info: 49448 BONDS
Info: 8698 ANGLES
Info: 18780 DIHEDRALS
Info: 0 IMPROPERS
Info: 0 CROSSTERMS
Info: 0 EXCLUSIONS
Info: 2336 CONSTRAINTS
Info: 47058 RIGID BONDS
Info: 101124 DEGREES OF FREEDOM
Info: 17225 HYDROGEN GROUPS
Info: 4 ATOMS IN LARGEST HYDROGEN GROUP
Info: 17225 MIGRATION GROUPS
Info: 4 ATOMS IN LARGEST MIGRATION GROUP
Info: TOTAL MASS = 301478 amu
Info: TOTAL CHARGE = 1.00115e-05 e
Info: MASS DENSITY = 0.935846 g/cm^3
Info: ATOM DENSITY = 0.0923345 atoms/A^3
Info: ADDED 70656 IMPLICIT EXCLUSIONS
Info: NONBONDED TABLE R-SQUARED SPACING: 0.0625
Info: NONBONDED TABLE SIZE: 769 POINTS
Info: REMOVING COM VELOCITY 0 0 0
TCL: Minimizing for 100 steps
ETITLE: TS BOND ANGLE DIHED IMPRP ELECT VDW BOUNDARY MISC KINETIC TOTAL TEMP POTENTIAL TOTAL3 TEMPAVG PRESSURE GPRESSURE VOLUME PRESSAVG GPRESSAVG
ENERGY: 0 155.4176 1012.2698 2855.7272 0.0000 -154496.7912 207729.2052 0.0468 0.0000 0.0000 57255.8754 0.0000 57255.8754 57255.8754 0.0000 116350.2532 86546.1670 534946.2959 116350.2532 86546.1670
ENERGY: 20 304.7546 935.7911 2893.4663 0.0000 -158672.9402 17936.6596 143.9454 0.0000 0.0000 -136458.3233 0.0000 -136458.3233 -136458.3233 0.0000 16523.9389 -239.4556 534946.2959 16523.9389 -239.4556
ENERGY: 40 198.7417 799.5723 2896.9273 0.0000 -162811.4532 16417.9537 221.3029 0.0000 0.0000 -142276.9553 0.0000 -142276.9553 -142276.9553 0.0000 15011.2704 -2135.4697 534946.2959 15011.2704 -2135.4697
ENERGY: 60 130.5286 715.3440 2898.2165 0.0000 -167496.1531 15446.7545 315.2795 0.0000 0.0000 -147990.0299 0.0000 -147990.0299 -147990.0299 0.0000 13793.8847 -3799.3974 534946.2959 13793.8847 -3799.3974
ENERGY: 80 431.2753 765.6310 2904.3784 0.0000 -169937.5262 15121.1527 372.0121 0.0000 0.0000 -150343.0766 0.0000 -150343.0766 -150343.0766 0.0000 13270.3318 -4577.2439 534946.2959 13270.3318 -4577.2439
ENERGY: 100 129.7153 708.0655 2904.2779 0.0000 -171050.0660 15018.6533 384.1999 0.0000 0.0000 -151905.1541 0.0000 -151905.1541 -151905.1541 0.0000 13092.9128 -4843.6319 534946.2959 13092.9128 -4843.6319
TCL: Setting parameter constraintScaling to 5.0
TCL: Minimizing for 100 steps
ETITLE: TS BOND ANGLE DIHED IMPRP ELECT VDW BOUNDARY MISC KINETIC TOTAL TEMP POTENTIAL TOTAL3 TEMPAVG PRESSURE GPRESSURE VOLUME PRESSAVG GPRESSAVG
ENERGY: 100 129.7153 708.0655 2904.2779 0.0000 -171050.0660 15018.6533 192.0999 0.0000 0.0000 -152097.2540 0.0000 -152097.2540 -152097.2540 0.0000 13703.5080 -22944.4545 534946.2959 13703.5080 -22944.4545
ENERGY: 120 118.6826 680.2877 2909.9066 0.0000 -172396.3162 14830.1204 259.9550 0.0000 0.0000 -153597.3639 0.0000 -153597.3639 -153597.3639 0.0000 13320.9469 -4756.3079 534946.2959 13320.9469 -4756.3079
ENERGY: 140 109.1496 671.1474 2912.0863 0.0000 -174830.2591 14716.1439 337.7306 0.0000 0.0000 -156084.0013 0.0000 -156084.0013 -156084.0013 0.0000 12908.9586 -5423.1467 534946.2959 12908.9586 -5423.1467
ENERGY: 160 125.8526 667.1488 2914.1927 0.0000 -175967.0407 14735.1337 362.9186 0.0000 0.0000 -157161.7942 0.0000 -157161.7942 -157161.7942 0.0000 12806.8977 -5636.7382 534946.2959 12806.8977 -5636.7382
ENERGY: 180 303.5277 659.6779 2917.2963 0.0000 -177408.6451 14815.0099 395.3813 0.0000 0.0000 -158317.7521 0.0000 -158317.7521 -158317.7521 0.0000 12699.3188 -5893.7663 534946.2959 12699.3188 -5893.7663
ENERGY: 200 109.2135 628.4867 2923.3603 0.0000 -179544.3997 15071.2482 441.8975 0.0000 0.0000 -160370.1934 0.0000 -160370.1934 -160370.1934 0.0000 12659.9888 -6154.7512 534946.2959 12659.9888 -6154.7512
TCL: Setting parameter constraintScaling to 2.5
TCL: Minimizing for 100 steps
ETITLE: TS BOND ANGLE DIHED IMPRP ELECT VDW BOUNDARY MISC KINETIC TOTAL TEMP POTENTIAL TOTAL3 TEMPAVG PRESSURE GPRESSURE VOLUME PRESSAVG GPRESSAVG
ENERGY: 200 109.2135 628.4867 2923.3603 0.0000 -179544.3997 15071.2482 220.9487 0.0000 0.0000 -160591.1421 0.0000 -160591.1421 -160591.1421 0.0000 13208.4236 -25273.9463 534946.2959 13208.4236 -25273.9463
ENERGY: 220 278.9418 653.9841 2925.3484 0.0000 -180409.8451 15110.0372 289.1348 0.0000 0.0000 -161152.3988 0.0000 -161152.3988 -161152.3988 0.0000 12996.9367 -5918.9497 534946.2959 12996.9367 -5918.9497
ENERGY: 240 252.3424 639.3214 2923.2935 0.0000 -181408.4960 15262.7747 324.5845 0.0000 0.0000 -162006.1795 0.0000 -162006.1795 -162006.1795 0.0000 12954.7458 -6059.3093 534946.2959 12954.7458 -6059.3093
ENERGY: 260 307.3074 658.3246 2922.9564 0.0000 -183632.8155 15758.6771 410.7988 0.0000 0.0000 -163574.7511 0.0000 -163574.7511 -163574.7511 0.0000 12990.5532 -6275.2464 534946.2959 12990.5532 -6275.2464
ENERGY: 280 147.6196 670.9887 2920.5094 0.0000 -184541.1653 16019.8363 428.7765 0.0000 0.0000 -164353.4349 0.0000 -164353.4349 -164353.4349 0.0000 13098.0064 -6279.3167 534946.2959 13098.0064 -6279.3167
ENERGY: 300 139.7292 643.3861 2920.7469 0.0000 -185537.4529 16323.1842 426.4641 0.0000 0.0000 -165083.9425 0.0000 -165083.9425 -165083.9425 0.0000 13235.8621 -6231.6773 534946.2959 13235.8621 -6231.6773
TCL: Setting parameter constraintScaling to 1.25
TCL: Minimizing for 100 steps
ETITLE: TS BOND ANGLE DIHED IMPRP ELECT VDW BOUNDARY MISC KINETIC TOTAL TEMP POTENTIAL TOTAL3 TEMPAVG PRESSURE GPRESSURE VOLUME PRESSAVG GPRESSAVG
ENERGY: 300 139.7292 643.3861 2920.7469 0.0000 -185537.4529 16323.1842 213.2321 0.0000 0.0000 -165297.1745 0.0000 -165297.1745 -165297.1745 0.0000 13651.6652 -26213.2940 534946.2959 13651.6652 -26213.2940
ENERGY: 320 239.3341 663.2312 2915.3525 0.0000 -186159.1956 16452.8619 258.7669 0.0000 0.0000 -165629.6489 0.0000 -165629.6489 -165629.6489 0.0000 13592.6109 -5956.6562 534946.2959 13592.6109 -5956.6562
ENERGY: 340 135.4781 622.2468 2911.0009 0.0000 -186828.9908 16639.5345 284.5686 0.0000 0.0000 -166236.1619 0.0000 -166236.1619 -166236.1619 0.0000 13628.9239 -5987.4485 534946.2959 13628.9239 -5987.4485
ENERGY: 360 186.5144 631.7054 2905.3035 0.0000 -188442.2572 17155.2145 342.7051 0.0000 0.0000 -167220.8142 0.0000 -167220.8142 -167220.8142 0.0000 13769.1668 -6028.1230 534946.2959 13769.1668 -6028.1230
ENERGY: 380 158.3517 637.3999 2899.4890 0.0000 -189932.7767 17712.2620 384.2730 0.0000 0.0000 -168141.0011 0.0000 -168141.0011 -168141.0011 0.0000 14000.8129 -5974.0092 534946.2959 14000.8129 -5974.0092
ENERGY: 400 223.3098 737.4479 2912.6141 0.0000 -190782.8638 18015.3711 397.7575 0.0000 0.0000 -168496.3633 0.0000 -168496.3633 -168496.3633 0.0000 14114.0019 -5948.0752 534946.2959 14114.0019 -5948.0752
TCL: Setting parameter constraintScaling to 0.625
TCL: Minimizing for 100 steps
ETITLE: TS BOND ANGLE DIHED IMPRP ELECT VDW BOUNDARY MISC KINETIC TOTAL TEMP POTENTIAL TOTAL3 TEMPAVG PRESSURE GPRESSURE VOLUME PRESSAVG GPRESSAVG
ENERGY: 400 223.3098 737.4479 2912.6141 0.0000 -190782.8638 18015.3711 198.8788 0.0000 0.0000 -168695.2421 0.0000 -168695.2421 -168695.2421 0.0000 14410.2116 -26703.8174 534946.2959 14410.2116 -26703.8174
ENERGY: 420 148.2285 647.5323 2893.4126 0.0000 -191125.3867 18117.1589 210.0229 0.0000 0.0000 -169109.0315 0.0000 -169109.0315 -169109.0315 0.0000 14439.6768 -5661.5415 534946.2959 14439.6768 -5661.5415
ENERGY: 440 198.7811 666.3898 2887.1177 0.0000 -192558.3953 18604.3108 278.2950 0.0000 0.0000 -169923.5009 0.0000 -169923.5009 -169923.5009 0.0000 14501.7777 -5741.2887 534946.2959 14501.7777 -5741.2887
ENERGY: 460 203.5601 698.8563 2885.4643 0.0000 -193295.5092 18905.1750 283.7186 0.0000 0.0000 -170318.7349 0.0000 -170318.7349 -170318.7349 0.0000 14709.4220 -5637.6728 534946.2959 14709.4220 -5637.6728
ENERGY: 480 165.5214 643.6164 2887.4674 0.0000 -194199.3454 19260.1857 285.5283 0.0000 0.0000 -170957.0261 0.0000 -170957.0261 -170957.0261 0.0000 14909.3083 -5551.7933 534946.2959 14909.3083 -5551.7933
ENERGY: 500 213.0532 676.6493 2887.6840 0.0000 -195600.6851 19848.1148 316.7194 0.0000 0.0000 -171658.4643 0.0000 -171658.4643 -171658.4643 0.0000 15164.6732 -5460.0729 534946.2959 15164.6732 -5460.0729
TCL: Setting parameter constraintScaling to 0.3125
TCL: Minimizing for 100 steps
ETITLE: TS BOND ANGLE DIHED IMPRP ELECT VDW BOUNDARY MISC KINETIC TOTAL TEMP POTENTIAL TOTAL3 TEMPAVG PRESSURE GPRESSURE VOLUME PRESSAVG GPRESSAVG
ENERGY: 500 213.0532 676.6493 2887.6840 0.0000 -195600.6851 19848.1148 158.3597 0.0000 0.0000 -171816.8240 0.0000 -171816.8240 -171816.8240 0.0000 15366.0546 -26881.5814 534946.2959 15366.0546 -26881.5814
ENERGY: 520 157.6702 671.5067 2868.2875 0.0000 -196024.4685 19979.6204 176.4539 0.0000 0.0000 -172170.9297 0.0000 -172170.9297 -172170.9297 0.0000 15389.8193 -5275.9945 534946.2959 15389.8193 -5275.9945
ENERGY: 540 158.5211 654.3823 2869.0332 0.0000 -196518.6609 20135.3141 200.0254 0.0000 0.0000 -172501.3848 0.0000 -172501.3848 -172501.3848 0.0000 15398.9158 -5312.1116 534946.2959 15398.9158 -5312.1116
ENERGY: 560 207.5327 693.0193 2888.1736 0.0000 -197451.6237 20517.3242 202.5562 0.0000 0.0000 -172943.0177 0.0000 -172943.0177 -172943.0177 0.0000 15616.5557 -5202.6493 534946.2959 15616.5557 -5202.6493
ENERGY: 580 149.8418 650.2254 2879.2653 0.0000 -197792.3617 20650.2951 207.5672 0.0000 0.0000 -173255.1669 0.0000 -173255.1669 -173255.1669 0.0000 15707.3935 -5165.3910 534946.2959 15707.3935 -5165.3910
ENERGY: 600 158.1081 656.1297 2862.1139 0.0000 -198139.4436 20736.4597 227.3693 0.0000 0.0000 -173499.2629 0.0000 -173499.2629 -173499.2629 0.0000 15691.5564 -5213.2214 534946.2959 15691.5564 -5213.2214
TCL: Setting parameter constraintScaling to 0.15625
TCL: Minimizing for 100 steps
ETITLE: TS BOND ANGLE DIHED IMPRP ELECT VDW BOUNDARY MISC KINETIC TOTAL TEMP POTENTIAL TOTAL3 TEMPAVG PRESSURE GPRESSURE VOLUME PRESSAVG GPRESSAVG
ENERGY: 600 158.1081 656.1297 2862.1139 0.0000 -198139.4436 20736.4597 113.6847 0.0000 0.0000 -173612.9475 0.0000 -173612.9475 -173612.9475 0.0000 15814.3711 -27026.3075 534946.2959 15814.3711 -27026.3075
ENERGY: 620 154.0001 636.6453 2856.5106 0.0000 -198286.8368 20783.6959 116.4549 0.0000 0.0000 -173739.5300 0.0000 -173739.5300 -173739.5300 0.0000 15800.3240 -5112.9852 534946.2959 15800.3240 -5112.9852
ENERGY: 640 159.3292 648.6678 2855.2133 0.0000 -198922.4459 21012.0596 129.5275 0.0000 0.0000 -174117.6486 0.0000 -174117.6486 -174117.6486 0.0000 15878.4116 -5104.4957 534946.2959 15878.4116 -5104.4957
ENERGY: 660 341.2873 689.9884 2849.3527 0.0000 -199745.0744 21342.9934 139.7800 0.0000 0.0000 -174381.6727 0.0000 -174381.6727 -174381.6727 0.0000 16036.7291 -5047.3872 534946.2959 16036.7291 -5047.3872
ENERGY: 680 162.9855 658.6302 2844.9706 0.0000 -200569.5600 21634.5397 152.4545 0.0000 0.0000 -175115.9795 0.0000 -175115.9795 -175115.9795 0.0000 16206.3377 -4985.8918 534946.2959 16206.3377 -4985.8918
ENERGY: 700 162.6217 652.1156 2838.8185 0.0000 -200850.1556 21738.0544 155.6391 0.0000 0.0000 -175302.9063 0.0000 -175302.9063 -175302.9063 0.0000 16258.8713 -4963.6438 534946.2959 16258.8713 -4963.6438
TCL: Setting parameter constraintScaling to 0.078125
TCL: Minimizing for 100 steps
ETITLE: TS BOND ANGLE DIHED IMPRP ELECT VDW BOUNDARY MISC KINETIC TOTAL TEMP POTENTIAL TOTAL3 TEMPAVG PRESSURE GPRESSURE VOLUME PRESSAVG GPRESSAVG
ENERGY: 700 162.6217 652.1156 2838.8185 0.0000 -200850.1556 21738.0544 77.8195 0.0000 0.0000 -175380.7259 0.0000 -175380.7259 -175380.7259 0.0000 16332.6236 -27159.2998 534946.2959 16332.6236 -27159.2998
ENERGY: 720 185.1477 653.8331 2840.7829 0.0000 -201006.9401 21787.0718 80.5567 0.0000 0.0000 -175459.5479 0.0000 -175459.5479 -175459.5479 0.0000 16300.5987 -4931.0081 534946.2959 16300.5987 -4931.0081
ENERGY: 740 172.8818 651.4846 2833.8541 0.0000 -201492.3276 21977.2833 85.8296 0.0000 0.0000 -175770.9941 0.0000 -175770.9941 -175770.9941 0.0000 16399.8437 -4886.2451 534946.2959 16399.8437 -4886.2451
ENERGY: 760 162.3564 650.4952 2834.0004 0.0000 -201901.1648 22126.9159 89.5064 0.0000 0.0000 -176037.8905 0.0000 -176037.8905 -176037.8905 0.0000 16488.0997 -4852.3318 534946.2959 16488.0997 -4852.3318
ENERGY: 780 174.5205 657.0020 2830.6110 0.0000 -202074.9573 22201.0240 90.4800 0.0000 0.0000 -176121.3198 0.0000 -176121.3198 -176121.3198 0.0000 16521.7355 -4837.4783 534946.2959 16521.7355 -4837.4783
ENERGY: 800 179.1467 669.5672 2832.8651 0.0000 -202593.5511 22398.7210 95.0541 0.0000 0.0000 -176418.1969 0.0000 -176418.1969 -176418.1969 0.0000 16612.9350 -4808.2400 534946.2959 16612.9350 -4808.2400
TCL: Setting parameter constraintScaling to 0.0390625
TCL: Minimizing for 100 steps
ETITLE: TS BOND ANGLE DIHED IMPRP ELECT VDW BOUNDARY MISC KINETIC TOTAL TEMP POTENTIAL TOTAL3 TEMPAVG PRESSURE GPRESSURE VOLUME PRESSAVG GPRESSAVG
ENERGY: 800 179.1467 669.5672 2832.8651 0.0000 -202593.5511 22398.7210 47.5271 0.0000 0.0000 -176465.7240 0.0000 -176465.7240 -176465.7240 0.0000 16654.6928 -27253.0947 534946.2959 16654.6928 -27253.0947
ENERGY: 820 157.2452 648.2959 2825.2195 0.0000 -202664.9420 22434.1438 47.7588 0.0000 0.0000 -176552.2788 0.0000 -176552.2788 -176552.2788 0.0000 16688.2031 -4741.1962 534946.2959 16688.2031 -4741.1962
ENERGY: 840 168.0562 654.2622 2824.5602 0.0000 -203139.6103 22621.2838 50.8296 0.0000 0.0000 -176820.6183 0.0000 -176820.6183 -176820.6183 0.0000 16771.1685 -4716.8263 534946.2959 16771.1685 -4716.8263
ENERGY: 860 203.5586 682.6361 2821.1097 0.0000 -203514.5610 22791.4252 52.4870 0.0000 0.0000 -176963.3444 0.0000 -176963.3444 -176963.3444 0.0000 16836.8956 -4678.0467 534946.2959 16836.8956 -4678.0467
ENERGY: 880 174.1390 657.7413 2821.9980 0.0000 -203976.8263 22974.4734 54.9514 0.0000 0.0000 -177293.5232 0.0000 -177293.5232 -177293.5232 0.0000 16935.5523 -4642.8305 534946.2959 16935.5523 -4642.8305
ENERGY: 900 179.1394 650.1243 2813.1675 0.0000 -204826.7859 23375.4220 59.4597 0.0000 0.0000 -177749.4730 0.0000 -177749.4730 -177749.4730 0.0000 17158.9547 -4523.4096 534946.2959 17158.9547 -4523.4096
TCL: Setting parameter constraintScaling to 0.01953125
TCL: Minimizing for 100 steps
ETITLE: TS BOND ANGLE DIHED IMPRP ELECT VDW BOUNDARY MISC KINETIC TOTAL TEMP POTENTIAL TOTAL3 TEMPAVG PRESSURE GPRESSURE VOLUME PRESSAVG GPRESSAVG
ENERGY: 900 179.1394 650.1243 2813.1675 0.0000 -204826.7859 23375.4220 29.7298 0.0000 0.0000 -177779.2028 0.0000 -177779.2028 -177779.2028 0.0000 17183.2393 -27260.3398 534946.2959 17183.2393 -27260.3398
ENERGY: 920 160.8752 647.6018 2813.3082 0.0000 -204901.0317 23403.2489 30.0611 0.0000 0.0000 -177845.9367 0.0000 -177845.9367 -177845.9367 0.0000 17191.8679 -4497.6344 534946.2959 17191.8679 -4497.6344
ENERGY: 940 282.0579 677.8920 2812.9176 0.0000 -205181.6210 23520.3023 31.0494 0.0000 0.0000 -177857.4019 0.0000 -177857.4019 -177857.4019 0.0000 17232.5578 -4496.4718 534946.2959 17232.5578 -4496.4718
ENERGY: 960 234.6124 666.1126 2813.5795 0.0000 -205536.9671 23669.7747 32.3745 0.0000 0.0000 -178120.5134 0.0000 -178120.5134 -178120.5134 0.0000 17308.5551 -4459.4772 534946.2959 17308.5551 -4459.4772
ENERGY: 980 179.1407 656.5433 2809.0333 0.0000 -205587.8898 23690.6668 32.3579 0.0000 0.0000 -178220.1478 0.0000 -178220.1478 -178220.1478 0.0000 17334.8371 -4439.6661 534946.2959 17334.8371 -4439.6661
ENERGY: 1000 163.0267 649.5671 2809.4468 0.0000 -205646.0914 23715.6224 32.5738 0.0000 0.0000 -178275.8547 0.0000 -178275.8547 -178275.8547 0.0000 17346.4569 -4429.9490 534946.2959 17346.4569 -4429.9490
TCL: Setting parameter constraintScaling to 0
TCL: Minimizing for 5000 steps
ETITLE: TS BOND ANGLE DIHED IMPRP ELECT VDW BOUNDARY MISC KINETIC TOTAL TEMP POTENTIAL TOTAL3 TEMPAVG PRESSURE GPRESSURE VOLUME PRESSAVG GPRESSAVG
ENERGY: 1000 163.0267 649.5671 2809.4468 0.0000 -205646.0914 23715.6224 0.0000 0.0000 0.0000 -178308.4284 0.0000 -178308.4284 -178308.4284 0.0000 17372.2453 -27265.8930 534946.2959 17372.2453 -27265.8930
ENERGY: 2000 168.4768 662.7606 2802.6355 0.0000 -214591.1101 27746.3008 0.0000 0.0000 0.0000 -183210.9364 0.0000 -183210.9364 -183210.9364 0.0000 19514.1365 -3275.3435 534946.2959 19514.1365 -3275.3435
ENERGY: 3000 166.7731 665.2407 2797.2116 0.0000 -217297.4655 28760.9835 0.0000 0.0000 0.0000 -184907.2566 0.0000 -184907.2566 -184907.2566 0.0000 20045.5550 -3021.2520 534946.2959 20045.5550 -3021.2520
ENERGY: 4000 166.6560 664.1425 2789.3630 0.0000 -218730.7740 29391.3512 0.0000 0.0000 0.0000 -185719.2614 0.0000 -185719.2614 -185719.2614 0.0000 20383.3763 -2836.9308 534946.2959 20383.3763 -2836.9308
ENERGY: 5000 172.3526 666.9745 2788.4719 0.0000 -219428.3035 29635.9104 0.0000 0.0000 0.0000 -186164.5941 0.0000 -186164.5941 -186164.5941 0.0000 20505.1956 -2792.9633 534946.2959 20505.1956 -2792.9633
ENERGY: 6000 168.0016 665.3301 2789.1980 0.0000 -219867.5184 29814.7241 0.0000 0.0000 0.0000 -186430.2645 0.0000 -186430.2645 -186430.2645 0.0000 20592.1895 -2745.0926 534946.2959 20592.1895 -2745.0926
