Info: SIMULATION PARAMETERS:
Info: TIMESTEP               1
Info: NUMBER OF STEPS        0
Info: STEPS PER CYCLE        10
Info: PERIODIC CELL BASIS 1  72.449 0 0
Info: PERIODIC CELL BASIS 2  0 93.247 0
Info: PERIODIC CELL BASIS 3  0 0 79.185
Info: PERIODIC CELL CENTER   -0.248 -0.156 -0.047
Info: WRAPPING WATERS AROUND PERIODIC BOUNDARIES ON OUTPUT.
Info: WRAPPING ALL CLUSTERS AROUND PERIODIC BOUNDARIES ON OUTPUT.
Info: FIRST LDB TIMESTEP     50
Info: LAST LDB TIMESTEP     -1
Info: HOM BACKGROUND SCALING 1
Info: PME BACKGROUND SCALING 1
Info: MIN ATOMS PER PATCH    40
Info: VELOCITY FILE          ../replicas/rep73/equilibration/eq1.vel
Info: CENTER OF MASS MOVING INITIALLY? NO
Info: DIELECTRIC             1
Info: EXCLUDE                SCALED ONE-FOUR
Info: 1-4 ELECTROSTATICS SCALED BY 0.833333
Info: MODIFIED 1-4 VDW PARAMETERS WILL BE USED
Info: DCD FILENAME           ../replicas/rep73/equilibration/eq2.dcd
Info: DCD FREQUENCY          5000
Info: DCD FIRST STEP         5000
Info: DCD FILE WILL CONTAIN UNIT CELL DATA
Info: XST FILENAME           ../replicas/rep73/equilibration/eq2.xst
Info: XST FREQUENCY          5000
Info: NO VELOCITY DCD OUTPUT
Info: NO FORCE DCD OUTPUT
Info: OUTPUT FILENAME        ../replicas/rep73/equilibration/eq2
Info: RESTART FILENAME       ../replicas/rep73/equilibration/eq2.restart
Info: RESTART FREQUENCY      5000
Info: BINARY RESTART FILES WILL BE USED
Info: SWITCHING ACTIVE
Info: SWITCHING ON           10
Info: SWITCHING OFF          12
Info: PAIRLIST DISTANCE      13.5
Info: PAIRLIST SHRINK RATE   0.01
Info: PAIRLIST GROW RATE     0.01
Info: PAIRLIST TRIGGER       0.3
Info: PAIRLISTS PER CYCLE    2
Info: PAIRLISTS ENABLED
Info: MARGIN                 0.48
Info: HYDROGEN GROUP CUTOFF  2.5
Info: PATCH DIMENSION        16.48
Info: ENERGY OUTPUT STEPS    500
Info: CROSSTERM ENERGY INCLUDED IN DIHEDRAL
Info: TIMING OUTPUT STEPS    5000
Info: PRESSURE OUTPUT STEPS  500
Info: HARMONIC CONSTRAINTS ACTIVE
Info: HARMONIC CONS EXP      2
Info: HARMONIC CONS SCALING  10
Info: LANGEVIN DYNAMICS ACTIVE
Info: LANGEVIN TEMPERATURE   300
Info: LANGEVIN USING BBK INTEGRATOR
Info: LANGEVIN DAMPING COEFFICIENT IS 5 INVERSE PS
Info: LANGEVIN DYNAMICS NOT APPLIED TO HYDROGENS
Info: BERENDSEN PRESSURE COUPLING ACTIVE
Info:     TARGET PRESSURE IS 1 BAR
Info:     COMPRESSIBILITY ESTIMATE IS 4.57e-05 BAR^(-1)
Info:     RELAXATION TIME IS 100 FS
Info:     APPLIED EVERY 2 STEPS
Info:     PRESSURE CONTROL IS GROUP-BASED
Info:       CELL FLUCTUATION IS ISOTROPIC
Info: PARTICLE MESH EWALD (PME) ACTIVE
Info: PME TOLERANCE               1e-06
Info: PME EWALD COEFFICIENT       0.257952
Info: PME INTERPOLATION ORDER     4
Info: PME GRID DIMENSIONS         80 96 80
Info: PME MAXIMUM GRID SPACING    1
Info: FULL ELECTROSTATIC EVALUATION FREQUENCY      2
Info: USING VERLET I (r-RESPA) MTS SCHEME.
Info: C1 SPLITTING OF LONG RANGE ELECTROSTATICS
Info: PLACING ATOMS IN PATCHES BY HYDROGEN GROUPS
Info: RIGID BONDS TO HYDROGEN : WATER
Info:         ERROR TOLERANCE : 1e-05
Info:          MAX ITERATIONS : 100
Info: RIGID WATER USING SETTLE ALGORITHM
Info: RANDOM NUMBER SEED     1503695471
Info: USE HYDROGEN BONDS?    NO
Info: Using AMBER format force field!
Info: AMBER PARM FILE        ../build/complex.top
Info: COORDINATE PDB         ../replicas/rep73/equilibration/eq1.coor
Info: Exclusions in PARM file will be ignored!
Info: SCNB (VDW SCALING)     2
Info: USING ARITHMETIC MEAN TO COMBINE L-J SIGMA PARAMETERS
Info: SUMMARY OF PARAMETERS:
Info: 71 BONDS
Info: 145 ANGLES
Info: 76 DIHEDRAL
Info: 0 IMPROPER
Info: 0 CROSSTERM
Info: 0 VDW
Info: 190 VDW_PAIRS
Info: 0 NBTHOLE_PAIRS
Info: STRUCTURE SUMMARY:
Info: 49394 ATOMS
Info: 49448 BONDS
Info: 8698 ANGLES
Info: 18780 DIHEDRALS
Info: 0 IMPROPERS
Info: 0 CROSSTERMS
Info: 0 EXCLUSIONS
Info: 2336 CONSTRAINTS
Info: 44667 RIGID BONDS
Info: 103515 DEGREES OF FREEDOM
Info: 17225 HYDROGEN GROUPS
Info: 4 ATOMS IN LARGEST HYDROGEN GROUP
Info: 17225 MIGRATION GROUPS
Info: 4 ATOMS IN LARGEST MIGRATION GROUP
Info: TOTAL MASS = 301478 amu
Info: TOTAL CHARGE = 1.00115e-05 e
Info: MASS DENSITY = 0.935846 g/cm^3
Info: ATOM DENSITY = 0.0923345 atoms/A^3
Info: ADDED 70656 IMPLICIT EXCLUSIONS
Info: NONBONDED TABLE R-SQUARED SPACING: 0.0625
Info: NONBONDED TABLE SIZE: 769 POINTS
Info: REMOVING COM VELOCITY 0.0325415 0.00588042 0.0277886
TCL: Running for 5000 steps
ETITLE: TS BOND ANGLE DIHED IMPRP ELECT VDW BOUNDARY MISC KINETIC TOTAL TEMP POTENTIAL TOTAL3 TEMPAVG PRESSURE GPRESSURE VOLUME PRESSAVG GPRESSAVG
ENERGY: 0 393.0242 1223.6583 2917.1350 0.0000 -212318.1907 29290.1790 0.0000 0.0000 10106.5583 -168387.6359 98.2631 -178494.1942 -168377.9274 98.2631 -2441.9514 -2542.2344 534946.2959 -2441.9514 -2542.2344
ENERGY: 1000 1308.1250 1945.0209 3111.3349 0.0000 -193964.1163 26611.4678 767.5833 0.0000 23888.8901 -136331.6943 232.2646 -160220.5844 -136311.5580 217.8868 -116.3064 -33.4536 520950.3425 -19.9885 -20.3864
ENERGY: 2000 1447.0770 2133.4786 3143.4134 0.0000 -184188.2523 23124.1052 773.3755 0.0000 27823.2227 -125743.5799 270.5170 -153566.8026 -125702.3323 263.9579 -11.7952 -49.3864 515605.2776 -28.0561 -27.9061
ENERGY: 3000 1515.4068 2244.1847 3136.5959 0.0000 -178958.5488 21483.1643 797.5849 0.0000 29441.1620 -120340.4501 286.2477 -149781.6121 -120300.9782 284.7144 1.2655 -17.1343 512038.3850 -6.5081 -6.5959
ENERGY: 4000 1542.6281 2264.0135 3165.4682 0.0000 -177095.4865 20873.7967 784.0799 0.0000 30399.9081 -118065.5921 295.5693 -148465.5001 -118024.2139 292.9832 -121.4750 -15.9445 508176.3865 -0.9256 -1.1956
ENERGY: 5000 1595.3168 2298.8748 3145.5798 0.0000 -176037.1523 20221.0317 823.5075 0.0000 30516.6609 -117436.1808 296.7045 -147952.8417 -117388.8013 297.0755 -57.0570 42.2286 508092.9134 6.6258 6.7096
TCL: Setting parameter constraintScaling to 5.0
TCL: Running for 5000 steps
ETITLE: TS BOND ANGLE DIHED IMPRP ELECT VDW BOUNDARY MISC KINETIC TOTAL TEMP POTENTIAL TOTAL3 TEMPAVG PRESSURE GPRESSURE VOLUME PRESSAVG GPRESSAVG
ENERGY: 5000 1595.3168 2298.8748 3145.5798 0.0000 -176037.1524 20221.0317 411.7538 0.0000 30514.6346 -117849.9608 296.6848 -148364.5954 -117804.7978 296.6848 -217.7759 -121.3743 508092.9134 -217.7759 -121.3743
ENERGY: 6000 1569.2331 2305.2775 3160.5747 0.0000 -176193.8236 20521.7282 638.7242 0.0000 30571.9279 -117426.3581 297.2418 -147998.2860 -117360.9551 297.7580 -115.4407 -13.9816 505175.7310 -0.8239 -0.5375
ENERGY: 7000 1627.4178 2287.7707 3149.8964 0.0000 -175957.2091 20622.0269 635.1273 0.0000 30684.7418 -116950.2283 298.3387 -147634.9700 -116907.8508 298.4968 -58.4427 -61.0150 503959.2082 -7.8877 -7.6641
ENERGY: 8000 1588.7084 2306.2864 3164.6247 0.0000 -175887.0994 20402.4721 637.1196 0.0000 30794.9966 -116992.8917 299.4107 -147787.8883 -116952.4331 299.1478 -35.1795 -32.8905 503554.1258 -0.8208 -1.1824
ENERGY: 9000 1598.2756 2374.3171 3193.2902 0.0000 -175633.1634 20339.4959 637.5623 0.0000 30947.8598 -116542.3624 300.8969 -147490.2222 -116509.8454 299.6670 -13.5961 6.4684 503801.0420 4.0334 4.2356
ENERGY: 10000 1591.3123 2348.2818 3168.9301 0.0000 -175271.5741 20051.6168 633.6411 0.0000 30855.4942 -116622.2978 299.9989 -147477.7920 -116567.9449 299.9092 -21.4245 -15.3354 503147.5824 -4.6314 -4.9662
TCL: Setting parameter constraintScaling to 2.5
TCL: Running for 5000 steps
ETITLE: TS BOND ANGLE DIHED IMPRP ELECT VDW BOUNDARY MISC KINETIC TOTAL TEMP POTENTIAL TOTAL3 TEMPAVG PRESSURE GPRESSURE VOLUME PRESSAVG GPRESSAVG
ENERGY: 10000 1591.3123 2348.2818 3168.9301 0.0000 -175271.5741 20051.6168 316.8206 0.0000 30853.4303 -116941.1823 299.9788 -147794.6126 -116898.0692 299.9788 -80.7974 -75.9626 503147.5824 -80.7974 -75.9626
ENERGY: 11000 1640.8938 2339.7375 3205.5601 0.0000 -175261.2388 19853.9378 521.4180 0.0000 30873.0475 -116826.6441 300.1695 -147699.6916 -116785.2192 299.3987 -63.5174 11.0598 502034.2844 10.8586 11.2331
ENERGY: 12000 1601.4762 2416.8060 3184.5434 0.0000 -175602.0449 20066.6770 516.0400 0.0000 30616.7974 -117199.7049 297.6781 -147816.5023 -117151.3025 300.0293 -58.0232 -27.4994 501430.9022 -1.7639 -1.1470
ENERGY: 13000 1639.9406 2399.9303 3174.5599 0.0000 -175695.6139 20110.9690 503.4112 0.0000 30473.3498 -117393.4530 296.2834 -147866.8029 -117335.8364 298.0182 -113.7938 29.2273 500332.4129 0.8874 1.0564
ENERGY: 14000 1697.3881 2319.1186 3178.9645 0.0000 -176207.8681 20375.5800 518.5713 0.0000 30779.2642 -117338.9814 299.2577 -148118.2456 -117285.8291 299.9628 -25.5446 3.7381 498962.6931 -2.4716 -2.5065
ENERGY: 15000 1566.2326 2324.7282 3178.1317 0.0000 -175776.6577 20019.8864 489.5831 0.0000 30880.4292 -117317.6664 300.2413 -148198.0956 -117268.5524 299.2077 -21.4260 -63.0071 499452.2239 0.0017 -0.1688
TCL: Setting parameter constraintScaling to 1.25
TCL: Running for 5000 steps
ETITLE: TS BOND ANGLE DIHED IMPRP ELECT VDW BOUNDARY MISC KINETIC TOTAL TEMP POTENTIAL TOTAL3 TEMPAVG PRESSURE GPRESSURE VOLUME PRESSAVG GPRESSAVG
ENERGY: 15000 1566.2326 2324.7282 3178.1317 0.0000 -175776.6577 20019.8864 244.7915 0.0000 30878.3806 -117564.5066 300.2214 -148442.8872 -117519.2380 300.2214 -41.7055 -77.7958 499452.2239 -41.7055 -77.7958
ENERGY: 16000 1597.5214 2366.0978 3213.2724 0.0000 -175644.7927 20054.3216 375.9533 0.0000 30644.9636 -117392.6626 297.9519 -148037.6262 -117355.5327 298.1427 59.1292 53.0117 498237.0850 -9.2735 -9.4712
ENERGY: 17000 1654.9850 2383.5623 3198.7828 0.0000 -176102.5878 20245.3324 400.8357 0.0000 30869.0212 -117350.0684 300.1304 -148219.0896 -117300.3574 299.2652 -30.3680 -12.0290 498372.3156 0.3888 -0.0728
ENERGY: 18000 1640.4522 2332.9586 3213.7656 0.0000 -175467.8948 19992.2660 408.7234 0.0000 30841.0988 -117038.6302 299.8589 -147879.7290 -116993.7226 299.5694 52.6542 20.4776 498858.8945 -3.1890 -3.3124
ENERGY: 19000 1634.3899 2334.0648 3188.3564 0.0000 -175445.9111 19979.0979 392.0187 0.0000 30816.6762 -117101.3072 299.6214 -147917.9834 -117053.8599 299.6419 -52.7099 -15.9810 499880.1909 11.1083 10.9066
ENERGY: 20000 1641.2297 2401.7536 3214.4025 0.0000 -175573.7404 19842.5445 404.5065 0.0000 30934.3866 -117134.9170 300.7659 -148069.3036 -117090.6897 299.8239 -38.0479 23.8715 500004.4031 -2.7692 -2.4405
TCL: Setting parameter constraintScaling to 0.625
TCL: Running for 5000 steps
ETITLE: TS BOND ANGLE DIHED IMPRP ELECT VDW BOUNDARY MISC KINETIC TOTAL TEMP POTENTIAL TOTAL3 TEMPAVG PRESSURE GPRESSURE VOLUME PRESSAVG GPRESSAVG
ENERGY: 20000 1641.2297 2401.7536 3214.4025 0.0000 -175573.7404 19842.5445 202.2533 0.0000 30932.3347 -117339.2222 300.7460 -148271.5569 -117292.4170 300.7460 -152.3804 -88.5050 500004.4031 -152.3804 -88.5050
ENERGY: 21000 1672.4187 2349.8266 3188.2517 0.0000 -175577.2063 20021.1111 302.4469 0.0000 30797.9145 -117245.2369 299.4390 -148043.1514 -117206.3925 299.0758 -72.3433 2.9993 500905.7468 21.1222 21.7112
ENERGY: 22000 1615.6314 2346.6369 3202.0762 0.0000 -175909.3967 20166.5427 299.7714 0.0000 30821.4212 -117457.3169 299.6676 -148278.7381 -117405.7655 299.5533 -5.6553 50.0733 500314.4984 -5.7661 -6.0637
ENERGY: 23000 1652.4822 2352.9361 3184.3797 0.0000 -175974.8993 20195.0049 321.5540 0.0000 30793.8536 -117474.6887 299.3995 -148268.5423 -117432.1240 299.3062 -49.0812 -27.0083 499483.3408 0.2294 0.4575
ENERGY: 24000 1608.3288 2428.0067 3195.2081 0.0000 -176103.3721 20260.2368 326.6686 0.0000 30747.7685 -117537.1547 298.9515 -148284.9231 -117496.8601 299.2341 -29.1139 59.5324 499560.9531 -2.6543 -2.6783
ENERGY: 25000 1615.9421 2331.0132 3199.3163 0.0000 -175682.6818 20178.0276 297.2843 0.0000 30732.3733 -117328.7250 298.8018 -148061.0983 -117276.6145 299.5113 -14.3298 -20.7070 499168.2924 2.9258 3.3808
TCL: Setting parameter constraintScaling to 0.3125
TCL: Running for 5000 steps
ETITLE: TS BOND ANGLE DIHED IMPRP ELECT VDW BOUNDARY MISC KINETIC TOTAL TEMP POTENTIAL TOTAL3 TEMPAVG PRESSURE GPRESSURE VOLUME PRESSAVG GPRESSAVG
ENERGY: 25000 1615.9421 2331.0132 3199.3163 0.0000 -175682.6818 20178.0276 148.6421 0.0000 30730.3286 -117479.4118 298.7819 -148209.7404 -117439.4229 298.7819 -27.4164 -33.7455 499168.2924 -27.4164 -33.7455
ENERGY: 26000 1682.5416 2417.3344 3202.5620 0.0000 -175583.2261 19924.0011 236.0334 0.0000 30809.5397 -117311.2140 299.5521 -148120.7537 -117261.2805 299.7484 81.0304 115.8064 497750.1085 -7.5800 -7.8993
ENERGY: 27000 1681.1777 2457.5741 3203.4679 0.0000 -175495.9649 20044.7026 245.6659 0.0000 30730.9628 -117132.4139 298.7881 -147863.3767 -117073.3677 301.0909 -40.6023 -60.8187 498470.7820 -5.2415 -4.6427
ENERGY: 28000 1615.7774 2471.3168 3268.4513 0.0000 -175175.7981 19904.4718 243.2590 0.0000 30745.1268 -116927.3950 298.9258 -147672.5218 -116869.3781 301.0876 68.6585 71.5851 497495.0694 -1.1035 -1.2574
ENERGY: 29000 1634.1241 2354.5217 3226.6271 0.0000 -175737.0360 20224.9358 250.4186 0.0000 30807.4887 -117238.9202 299.5321 -148046.4089 -117197.1937 300.1604 23.8164 107.0093 498140.3525 -0.5407 -0.7409
ENERGY: 30000 1608.3220 2436.7181 3209.7358 0.0000 -175435.1864 19813.8432 253.6775 0.0000 30878.8932 -117233.9966 300.2264 -148112.8898 -117200.5280 300.2514 -91.7997 -76.7968 498554.4680 8.4808 8.4081
TCL: Setting parameter constraintScaling to 0.15625
TCL: Running for 5000 steps
ETITLE: TS BOND ANGLE DIHED IMPRP ELECT VDW BOUNDARY MISC KINETIC TOTAL TEMP POTENTIAL TOTAL3 TEMPAVG PRESSURE GPRESSURE VOLUME PRESSAVG GPRESSAVG
ENERGY: 30000 1608.3220 2436.7181 3209.7358 0.0000 -175435.1864 19813.8432 126.8387 0.0000 30876.8419 -117362.8866 300.2064 -148239.7286 -117319.0251 300.2064 -131.8853 -117.2337 498554.4680 -131.8853 -117.2337
ENERGY: 31000 1614.1723 2407.2077 3235.4578 0.0000 -175116.4218 19788.4164 185.8745 0.0000 30965.9150 -116919.3781 301.0724 -147885.2930 -116871.0269 301.4950 32.2816 -16.2886 499193.8146 6.9524 7.0104
ENERGY: 32000 1594.9785 2379.3890 3215.0141 0.0000 -176128.1552 20230.1878 172.0664 0.0000 31051.0922 -117485.4271 301.9006 -148536.5193 -117444.4035 300.7705 -112.9047 -59.7824 498876.6630 1.5878 1.6821
ENERGY: 33000 1653.9905 2397.4487 3219.3919 0.0000 -175136.4037 19756.7314 212.2712 0.0000 30725.3652 -117171.2048 298.7337 -147896.5700 -117128.1733 300.6816 74.2393 -45.7772 497303.0887 -8.4529 -8.4813
ENERGY: 34000 1694.3133 2390.4626 3219.7493 0.0000 -176160.6093 20336.0194 215.0353 0.0000 31018.8525 -117286.1768 301.5871 -148305.0293 -117239.3214 300.9041 34.0760 21.7224 497715.1618 4.2779 4.2320
ENERGY: 35000 1637.7652 2397.7029 3217.1500 0.0000 -175498.0076 20032.2065 208.6103 0.0000 31007.6813 -116996.8914 301.4785 -148004.5727 -116949.2027 300.6243 -72.7801 -21.1787 498089.5845 2.0877 1.9378
TCL: Setting parameter constraintScaling to 0.078125
TCL: Running for 5000 steps
ETITLE: TS BOND ANGLE DIHED IMPRP ELECT VDW BOUNDARY MISC KINETIC TOTAL TEMP POTENTIAL TOTAL3 TEMPAVG PRESSURE GPRESSURE VOLUME PRESSAVG GPRESSAVG
ENERGY: 35000 1637.7652 2397.7029 3217.1500 0.0000 -175498.0076 20032.2065 104.3051 0.0000 31005.6361 -117103.2418 301.4586 -148108.8778 -117061.9323 301.4586 -99.8277 -41.1814 498089.5845 -99.8277 -41.1814
ENERGY: 36000 1656.9906 2397.9972 3205.2322 0.0000 -175930.5143 20234.6802 149.3964 0.0000 30758.7202 -117527.4976 299.0580 -148286.2179 -117487.6153 299.6989 24.4718 -5.1732 497930.8935 14.9812 15.3650
ENERGY: 37000 1636.6959 2384.1196 3188.6512 0.0000 -175460.6270 19986.3879 164.5529 0.0000 30792.7053 -117307.5142 299.3884 -148100.2196 -117260.8057 300.9881 60.9377 28.7460 497798.2241 7.1761 7.6037
ENERGY: 38000 1630.3317 2404.4648 3213.2447 0.0000 -175865.7579 19933.3043 155.8702 0.0000 30741.4925 -117787.0497 298.8905 -148528.5421 -117751.4229 299.6119 25.0677 26.6145 496683.5994 -10.6181 -10.4180
ENERGY: 39000 1608.1297 2458.4771 3201.9771 0.0000 -176347.4341 20196.1510 171.8032 0.0000 30674.1833 -118036.7127 298.2360 -148710.8960 -117993.6019 298.5376 -4.7231 50.1299 497128.3118 0.3734 0.8468
ENERGY: 40000 1647.0844 2400.6570 3238.6579 0.0000 -176229.3783 19984.3251 176.4890 0.0000 30833.6967 -117948.4682 299.7869 -148782.1649 -117904.4373 299.3142 -145.6195 -14.7341 497094.5140 1.7065 1.5638
TCL: Setting parameter constraintScaling to 0.0390625
TCL: Running for 5000 steps
ETITLE: TS BOND ANGLE DIHED IMPRP ELECT VDW BOUNDARY MISC KINETIC TOTAL TEMP POTENTIAL TOTAL3 TEMPAVG PRESSURE GPRESSURE VOLUME PRESSAVG GPRESSAVG
ENERGY: 40000 1647.0844 2400.6570 3238.6579 0.0000 -176229.3783 19984.3251 88.2445 0.0000 30831.6444 -118038.7650 299.7670 -148870.4094 -117997.6907 299.7670 -155.1374 -34.3858 497094.5140 -155.1374 -34.3858
ENERGY: 41000 1652.5668 2391.7734 3196.9042 0.0000 -175730.9631 19927.4343 101.7667 0.0000 31032.3716 -117428.1461 301.7186 -148460.5178 -117387.1880 300.5761 39.0317 13.4056 497233.8232 8.5912 9.0365
ENERGY: 42000 1644.1609 2412.2000 3241.2762 0.0000 -175788.4656 19816.6153 103.7269 0.0000 30866.1542 -117704.3320 300.1025 -148570.4863 -117668.6182 300.7930 -35.8093 -11.6412 496561.0191 1.5081 2.1730
ENERGY: 43000 1620.3556 2468.4512 3238.4591 0.0000 -175941.4820 19883.7652 111.9145 0.0000 30781.2446 -117837.2917 299.2770 -148618.5363 -117796.5969 299.7242 -74.1104 -44.1803 495248.6580 -11.4462 -11.6311
ENERGY: 44000 1671.3883 2400.3451 3197.8054 0.0000 -176126.0113 20204.0520 124.5016 0.0000 30876.3690 -117651.5498 300.2018 -148527.9188 -117611.7343 300.4658 14.1758 44.4758 496000.9721 4.2867 4.7128
ENERGY: 45000 1622.4527 2411.1318 3200.8239 0.0000 -175751.2751 20008.4594 119.8627 0.0000 30973.4490 -117415.0957 301.1457 -148388.5447 -117366.2793 300.2708 -143.3020 -63.2546 498569.2124 10.7017 11.2198
TCL: Setting parameter constraintScaling to 0.01953125
TCL: Running for 5000 steps
ETITLE: TS BOND ANGLE DIHED IMPRP ELECT VDW BOUNDARY MISC KINETIC TOTAL TEMP POTENTIAL TOTAL3 TEMPAVG PRESSURE GPRESSURE VOLUME PRESSAVG GPRESSAVG
ENERGY: 45000 1622.4527 2411.1318 3200.8239 0.0000 -175751.2751 20008.4594 59.9313 0.0000 30971.3853 -117477.0907 301.1256 -148448.4760 -117433.7244 301.1256 -161.8567 -75.8204 498569.2124 -161.8567 -75.8204
ENERGY: 46000 1640.7741 2452.5836 3213.2502 0.0000 -175642.6816 19866.0476 81.7731 0.0000 30749.8780 -117638.3749 298.9720 -148388.2529 -117594.9302 299.5337 -115.4741 -41.1451 496821.5929 -0.6408 -0.3953
ENERGY: 47000 1570.5288 2374.4685 3238.6377 0.0000 -176143.6713 20136.0479 81.9062 0.0000 30903.7615 -117838.3207 300.4681 -148742.0822 -117795.6181 299.7343 -20.0347 9.7556 497096.8465 -12.0204 -12.6450
ENERGY: 48000 1690.3074 2446.1253 3233.6355 0.0000 -176074.0680 20138.5724 92.8825 0.0000 30925.7748 -117546.7701 300.6822 -148472.5449 -117503.7647 300.3397 -71.2219 -61.8884 495945.2180 -3.3760 -3.3282
ENERGY: 49000 1613.6853 2396.5036 3189.2287 0.0000 -176399.5110 20248.4264 93.7003 0.0000 30619.0089 -118238.9578 297.6996 -148857.9667 -118182.0376 298.6657 100.0877 150.9680 493843.6272 -9.4148 -9.6105
ENERGY: 50000 1610.1381 2345.8079 3200.3904 0.0000 -176153.0495 20077.9951 95.4349 0.0000 30772.2585 -118051.0246 299.1896 -148823.2831 -118003.4082 298.6341 1.8137 85.8682 495674.7296 13.8036 14.0443
TCL: Setting parameter constraintScaling to 0
TCL: Running for 5000 steps
ETITLE: TS BOND ANGLE DIHED IMPRP ELECT VDW BOUNDARY MISC KINETIC TOTAL TEMP POTENTIAL TOTAL3 TEMPAVG PRESSURE GPRESSURE VOLUME PRESSAVG GPRESSAVG
ENERGY: 50000 1610.1381 2345.8079 3200.3904 0.0000 -176153.0495 20077.9951 0.0000 0.0000 30770.2147 -118148.5033 299.1697 -148918.7180 -118106.2352 299.1697 -5.4510 78.6066 495674.7296 -5.4510 78.6066
ENERGY: 51000 1627.6693 2400.3916 3208.7557 0.0000 -176193.2743 20064.5665 0.0000 0.0000 30831.0608 -118060.8304 299.7613 -148891.8912 -118016.1432 299.3979 -87.2820 -15.7005 495429.9413 -11.4272 -10.9575
ENERGY: 52000 1657.3548 2388.9759 3203.6016 0.0000 -176239.7799 20115.2305 0.0000 0.0000 30519.7296 -118354.8875 296.7343 -148874.6171 -118309.1903 297.8513 -41.1792 0.9287 495660.4833 5.7746 6.2209
ENERGY: 53000 1590.7300 2429.9088 3194.1283 0.0000 -176366.2430 20251.9439 0.0000 0.0000 30597.6170 -118301.9150 297.4916 -148899.5320 -118247.7530 297.6294 -3.3835 33.2285 496440.1159 2.1095 1.9940
ENERGY: 54000 1585.6674 2375.5722 3212.7068 0.0000 -175822.8832 19964.4720 0.0000 0.0000 30899.1933 -117785.2716 300.4237 -148684.4649 -117740.3110 299.5475 -103.5222 -70.4495 495870.7655 -3.5164 -3.4634
ENERGY: 55000 1613.7388 2446.9580 3200.7736 0.0000 -175943.7713 19988.4775 0.0000 0.0000 30889.7847 -117804.0387 300.3323 -148693.8234 -117751.1715 299.6179 -70.1607 -64.9590 496252.0193 4.4351 5.0626
