Info: SIMULATION PARAMETERS:
Info: TIMESTEP               1
Info: NUMBER OF STEPS        0
Info: STEPS PER CYCLE        10
Info: PERIODIC CELL BASIS 1  72.449 0 0
Info: PERIODIC CELL BASIS 2  0 93.247 0
Info: PERIODIC CELL BASIS 3  0 0 79.185
Info: PERIODIC CELL CENTER   -0.248 -0.156 -0.047
Info: WRAPPING WATERS AROUND PERIODIC BOUNDARIES ON OUTPUT.
Info: WRAPPING ALL CLUSTERS AROUND PERIODIC BOUNDARIES ON OUTPUT.
Info: FIRST LDB TIMESTEP     50
Info: LAST LDB TIMESTEP     -1
Info: HOM BACKGROUND SCALING 1
Info: PME BACKGROUND SCALING 1
Info: MIN ATOMS PER PATCH    40
Info: VELOCITY FILE          ../replicas/rep4/equilibration/eq1.vel
Info: CENTER OF MASS MOVING INITIALLY? NO
Info: DIELECTRIC             1
Info: EXCLUDE                SCALED ONE-FOUR
Info: 1-4 ELECTROSTATICS SCALED BY 0.833333
Info: MODIFIED 1-4 VDW PARAMETERS WILL BE USED
Info: DCD FILENAME           ../replicas/rep4/equilibration/eq2.dcd
Info: DCD FREQUENCY          5000
Info: DCD FIRST STEP         5000
Info: DCD FILE WILL CONTAIN UNIT CELL DATA
Info: XST FILENAME           ../replicas/rep4/equilibration/eq2.xst
Info: XST FREQUENCY          5000
Info: NO VELOCITY DCD OUTPUT
Info: NO FORCE DCD OUTPUT
Info: OUTPUT FILENAME        ../replicas/rep4/equilibration/eq2
Info: RESTART FILENAME       ../replicas/rep4/equilibration/eq2.restart
Info: RESTART FREQUENCY      5000
Info: BINARY RESTART FILES WILL BE USED
Info: SWITCHING ACTIVE
Info: SWITCHING ON           10
Info: SWITCHING OFF          12
Info: PAIRLIST DISTANCE      13.5
Info: PAIRLIST SHRINK RATE   0.01
Info: PAIRLIST GROW RATE     0.01
Info: PAIRLIST TRIGGER       0.3
Info: PAIRLISTS PER CYCLE    2
Info: PAIRLISTS ENABLED
Info: MARGIN                 0.48
Info: HYDROGEN GROUP CUTOFF  2.5
Info: PATCH DIMENSION        16.48
Info: ENERGY OUTPUT STEPS    500
Info: CROSSTERM ENERGY INCLUDED IN DIHEDRAL
Info: TIMING OUTPUT STEPS    5000
Info: PRESSURE OUTPUT STEPS  500
Info: HARMONIC CONSTRAINTS ACTIVE
Info: HARMONIC CONS EXP      2
Info: HARMONIC CONS SCALING  10
Info: LANGEVIN DYNAMICS ACTIVE
Info: LANGEVIN TEMPERATURE   300
Info: LANGEVIN USING BBK INTEGRATOR
Info: LANGEVIN DAMPING COEFFICIENT IS 5 INVERSE PS
Info: LANGEVIN DYNAMICS NOT APPLIED TO HYDROGENS
Info: BERENDSEN PRESSURE COUPLING ACTIVE
Info:     TARGET PRESSURE IS 1 BAR
Info:     COMPRESSIBILITY ESTIMATE IS 4.57e-05 BAR^(-1)
Info:     RELAXATION TIME IS 100 FS
Info:     APPLIED EVERY 2 STEPS
Info:     PRESSURE CONTROL IS GROUP-BASED
Info:       CELL FLUCTUATION IS ISOTROPIC
Info: PARTICLE MESH EWALD (PME) ACTIVE
Info: PME TOLERANCE               1e-06
Info: PME EWALD COEFFICIENT       0.257952
Info: PME INTERPOLATION ORDER     4
Info: PME GRID DIMENSIONS         80 96 80
Info: PME MAXIMUM GRID SPACING    1
Info: FULL ELECTROSTATIC EVALUATION FREQUENCY      2
Info: USING VERLET I (r-RESPA) MTS SCHEME.
Info: C1 SPLITTING OF LONG RANGE ELECTROSTATICS
Info: PLACING ATOMS IN PATCHES BY HYDROGEN GROUPS
Info: RIGID BONDS TO HYDROGEN : WATER
Info:         ERROR TOLERANCE : 1e-05
Info:          MAX ITERATIONS : 100
Info: RIGID WATER USING SETTLE ALGORITHM
Info: RANDOM NUMBER SEED     1503278628
Info: USE HYDROGEN BONDS?    NO
Info: Using AMBER format force field!
Info: AMBER PARM FILE        ../build/complex.top
Info: COORDINATE PDB         ../replicas/rep4/equilibration/eq1.coor
Info: Exclusions in PARM file will be ignored!
Info: SCNB (VDW SCALING)     2
Info: USING ARITHMETIC MEAN TO COMBINE L-J SIGMA PARAMETERS
Info: SUMMARY OF PARAMETERS:
Info: 71 BONDS
Info: 145 ANGLES
Info: 76 DIHEDRAL
Info: 0 IMPROPER
Info: 0 CROSSTERM
Info: 0 VDW
Info: 190 VDW_PAIRS
Info: 0 NBTHOLE_PAIRS
Info: STRUCTURE SUMMARY:
Info: 49394 ATOMS
Info: 49448 BONDS
Info: 8698 ANGLES
Info: 18780 DIHEDRALS
Info: 0 IMPROPERS
Info: 0 CROSSTERMS
Info: 0 EXCLUSIONS
Info: 2336 CONSTRAINTS
Info: 44667 RIGID BONDS
Info: 103515 DEGREES OF FREEDOM
Info: 17225 HYDROGEN GROUPS
Info: 4 ATOMS IN LARGEST HYDROGEN GROUP
Info: 17225 MIGRATION GROUPS
Info: 4 ATOMS IN LARGEST MIGRATION GROUP
Info: TOTAL MASS = 301478 amu
Info: TOTAL CHARGE = 1.00115e-05 e
Info: MASS DENSITY = 0.935846 g/cm^3
Info: ATOM DENSITY = 0.0923345 atoms/A^3
Info: ADDED 70656 IMPLICIT EXCLUSIONS
Info: NONBONDED TABLE R-SQUARED SPACING: 0.0625
Info: NONBONDED TABLE SIZE: 769 POINTS
Info: REMOVING COM VELOCITY 0.0175846 -0.00525592 -0.00476328
TCL: Running for 5000 steps
ETITLE: TS BOND ANGLE DIHED IMPRP ELECT VDW BOUNDARY MISC KINETIC TOTAL TEMP POTENTIAL TOTAL3 TEMPAVG PRESSURE GPRESSURE VOLUME PRESSAVG GPRESSAVG
ENERGY: 0 388.6106 1213.4631 2912.0031 0.0000 -212625.7431 29406.5387 0.0000 0.0000 10053.0000 -168652.1276 97.7424 -178705.1276 -168642.4688 97.7424 -2413.3618 -2509.0886 534946.2959 -2413.3618 -2509.0886
ENERGY: 1000 1232.5905 1961.9835 3112.5386 0.0000 -193504.9118 26300.8095 782.1530 0.0000 24087.0588 -136027.7778 234.1914 -160114.8367 -135996.3170 218.3795 -23.4378 -44.8236 521816.6893 -13.6004 -14.0377
ENERGY: 2000 1479.2222 2143.2129 3124.7381 0.0000 -184168.0694 23126.7521 778.2866 0.0000 27997.6350 -125518.2226 272.2127 -153515.8576 -125475.3871 263.8325 -116.7875 7.8904 516029.6320 -16.1013 -16.6910
ENERGY: 3000 1575.1159 2187.8323 3116.8165 0.0000 -180034.6423 21857.3739 809.6948 0.0000 29709.9082 -120777.9007 288.8607 -150487.8089 -120731.4972 283.3140 -125.5684 -21.2008 508746.0019 -20.5244 -20.9869
ENERGY: 4000 1546.4616 2213.6848 3161.0622 0.0000 -176468.6787 20459.4969 765.7156 0.0000 30221.3823 -118100.8752 293.8336 -148322.2574 -118065.9096 292.3435 -35.9329 -4.6488 506564.2042 -10.5505 -10.0001
ENERGY: 5000 1551.3004 2272.7341 3139.4725 0.0000 -175574.2686 20277.8811 810.9657 0.0000 30688.6252 -116833.2896 298.3764 -147521.9148 -116782.2414 297.2947 -43.7703 -23.1854 505677.7594 -8.9617 -8.5052
TCL: Setting parameter constraintScaling to 5.0
TCL: Running for 5000 steps
ETITLE: TS BOND ANGLE DIHED IMPRP ELECT VDW BOUNDARY MISC KINETIC TOTAL TEMP POTENTIAL TOTAL3 TEMPAVG PRESSURE GPRESSURE VOLUME PRESSAVG GPRESSAVG
ENERGY: 5000 1551.3004 2272.7341 3139.4725 0.0000 -175574.2686 20277.8811 405.4828 0.0000 30686.5844 -117240.8132 298.3566 -147927.3976 -117198.1719 298.3566 -74.3523 -56.5036 505677.7594 -74.3523 -56.5036
ENERGY: 6000 1617.3079 2346.8031 3190.8105 0.0000 -175182.4259 19866.7333 651.3532 0.0000 30841.3298 -116668.0881 299.8611 -147509.4179 -116618.8775 299.8884 -131.7217 -26.1204 503889.9827 3.0404 3.1567
ENERGY: 7000 1611.1579 2328.1406 3179.3144 0.0000 -175075.3022 20118.5435 642.0415 0.0000 30967.2046 -116228.8996 301.0850 -147196.1043 -116179.0439 301.2607 -104.6167 10.8979 503978.3145 4.4131 4.8537
ENERGY: 8000 1629.3770 2332.7061 3185.3651 0.0000 -175230.0616 20036.7303 628.4875 0.0000 30940.7100 -116476.6857 300.8274 -147417.3957 -116433.8847 300.3795 20.9610 6.5148 503117.3598 0.0454 -0.0289
ENERGY: 9000 1633.5035 2308.3213 3176.3181 0.0000 -175366.9912 20062.1199 646.5873 0.0000 30882.1692 -116657.9718 300.2582 -147540.1410 -116607.0992 299.8730 -67.1714 -36.8805 501956.7197 -20.3135 -19.3240
ENERGY: 10000 1586.0054 2299.9646 3133.4914 0.0000 -175174.0128 20064.4694 610.7672 0.0000 30961.5540 -116517.7608 301.0300 -147479.3148 -116466.7094 300.6473 -46.8399 13.5804 501289.4007 -8.5596 -8.0827
TCL: Setting parameter constraintScaling to 2.5
TCL: Running for 5000 steps
ETITLE: TS BOND ANGLE DIHED IMPRP ELECT VDW BOUNDARY MISC KINETIC TOTAL TEMP POTENTIAL TOTAL3 TEMPAVG PRESSURE GPRESSURE VOLUME PRESSAVG GPRESSAVG
ENERGY: 10000 1586.0054 2299.9646 3133.4914 0.0000 -175174.0128 20064.4694 305.3836 0.0000 30959.4977 -116825.2007 301.0101 -147784.6984 -116784.5278 301.0101 -53.9083 1.8700 501289.4007 -53.9083 1.8700
ENERGY: 11000 1652.7036 2336.0120 3202.9436 0.0000 -175550.5525 19906.2896 515.6240 0.0000 30687.8277 -117249.1520 298.3687 -147936.9797 -117209.2540 299.4636 3.2549 10.4393 501001.7895 3.4126 3.6452
ENERGY: 12000 1586.6138 2360.2502 3201.4296 0.0000 -175526.3184 19856.3665 498.6270 0.0000 30639.4788 -117383.5525 297.8986 -148023.0313 -117335.2308 298.7728 -3.8439 12.7285 498626.3281 -7.1980 -6.9959
ENERGY: 13000 1561.2967 2327.7836 3208.1153 0.0000 -176215.3219 20250.5352 519.6313 0.0000 30807.9391 -117540.0207 299.5365 -148347.9598 -117495.5927 298.1272 -94.7488 -75.3463 499898.3288 8.0665 8.0318
ENERGY: 14000 1606.4480 2312.3154 3157.5953 0.0000 -175917.3633 20178.1930 528.4252 0.0000 30576.8284 -117557.5580 297.2895 -148134.3864 -117523.2528 299.6413 96.8790 20.7498 499302.4717 3.4548 3.9476
ENERGY: 15000 1541.6616 2292.4703 3180.6537 0.0000 -175886.3931 20223.3238 511.8454 0.0000 30714.7072 -117421.7311 298.6300 -148136.4383 -117373.0950 298.4898 -39.4993 -28.7882 499648.5768 5.6534 5.2040
TCL: Setting parameter constraintScaling to 1.25
TCL: Running for 5000 steps
ETITLE: TS BOND ANGLE DIHED IMPRP ELECT VDW BOUNDARY MISC KINETIC TOTAL TEMP POTENTIAL TOTAL3 TEMPAVG PRESSURE GPRESSURE VOLUME PRESSAVG GPRESSAVG
ENERGY: 15000 1541.6616 2292.4703 3180.6537 0.0000 -175886.3930 20223.3238 255.9227 0.0000 30712.6808 -117679.6802 298.6103 -148392.3610 -117632.1849 298.6103 -36.8823 -24.6602 499648.5768 -36.8823 -24.6602
ENERGY: 16000 1677.3672 2332.2806 3191.5368 0.0000 -176051.8708 20240.9689 389.3997 0.0000 30795.6336 -117424.6841 299.4169 -148220.3177 -117383.7106 298.9148 10.0579 24.9097 499523.3459 -10.4439 -10.7555
ENERGY: 17000 1655.7663 2398.1725 3218.9610 0.0000 -175769.9247 20149.1110 403.4564 0.0000 30858.8191 -117085.6384 300.0312 -147944.4575 -117035.7682 300.1453 69.4951 71.7416 499979.5588 4.9777 4.9591
ENERGY: 18000 1661.5200 2352.2814 3193.9365 0.0000 -175561.2508 20054.9187 428.7275 0.0000 30932.4180 -116937.4488 300.7468 -147869.8668 -116895.3177 300.6311 -79.4756 -43.8013 499602.5711 2.6055 2.7715
ENERGY: 19000 1648.9822 2380.6602 3175.8684 0.0000 -175756.8200 20204.4247 395.5696 0.0000 31018.9009 -116932.4141 301.5876 -147951.3150 -116879.0904 300.4123 -64.8487 -62.6423 498249.1288 -10.5356 -10.6062
ENERGY: 20000 1605.0680 2321.5575 3179.3975 0.0000 -175942.8806 20184.0599 408.3374 0.0000 31017.3311 -117227.1292 301.5724 -148244.4604 -117180.7641 298.5020 -22.9808 -0.9772 498736.4630 -4.4715 -4.1525
TCL: Setting parameter constraintScaling to 0.625
TCL: Running for 5000 steps
ETITLE: TS BOND ANGLE DIHED IMPRP ELECT VDW BOUNDARY MISC KINETIC TOTAL TEMP POTENTIAL TOTAL3 TEMPAVG PRESSURE GPRESSURE VOLUME PRESSAVG GPRESSAVG
ENERGY: 20000 1605.0680 2321.5575 3179.3975 0.0000 -175942.8806 20184.0599 204.1687 0.0000 31015.2791 -117433.3500 301.5524 -148448.6291 -117392.3226 301.5524 -46.5142 -31.1857 498736.4630 -46.5142 -31.1857
ENERGY: 21000 1602.4560 2415.1319 3202.0632 0.0000 -175984.9215 20076.7440 324.9283 0.0000 30855.3366 -117508.2614 299.9973 -148363.5980 -117472.2915 300.1927 0.1295 -61.0180 497650.3148 -7.4489 -7.3280
ENERGY: 22000 1608.6527 2362.2929 3194.3236 0.0000 -175262.0716 19857.7763 312.6403 0.0000 30796.2733 -117130.1125 299.4231 -147926.3858 -117082.9441 298.8807 -37.8939 -96.0203 499160.8319 10.8812 10.3039
ENERGY: 23000 1644.0926 2364.1588 3176.1783 0.0000 -175950.8318 20061.7767 314.6989 0.0000 30778.5737 -117611.3526 299.2510 -148389.9264 -117566.2123 298.3925 -59.3723 -1.5377 498598.4355 6.7407 6.3036
ENERGY: 24000 1605.5678 2354.2435 3217.7044 0.0000 -175912.6097 19931.7803 323.5417 0.0000 30734.4946 -117745.2775 298.8224 -148479.7721 -117692.1100 298.4830 -15.6171 -39.2620 497809.9056 -7.1928 -7.2679
ENERGY: 25000 1609.4767 2375.7009 3179.2606 0.0000 -175858.5063 20307.3044 321.2024 0.0000 30753.8242 -117311.7371 299.0104 -148065.5614 -117266.7165 300.2751 -22.0174 -3.2213 498331.8641 -6.0047 -5.5668
TCL: Setting parameter constraintScaling to 0.3125
TCL: Running for 5000 steps
ETITLE: TS BOND ANGLE DIHED IMPRP ELECT VDW BOUNDARY MISC KINETIC TOTAL TEMP POTENTIAL TOTAL3 TEMPAVG PRESSURE GPRESSURE VOLUME PRESSAVG GPRESSAVG
ENERGY: 25000 1609.4767 2375.7009 3179.2606 0.0000 -175858.5063 20307.3044 160.6012 0.0000 30751.7710 -117474.3916 298.9904 -148226.1626 -117434.1945 298.9904 -9.8925 5.8201 498331.8641 -9.8925 5.8201
ENERGY: 26000 1634.0654 2422.9195 3204.8252 0.0000 -175706.4251 19861.5354 248.4380 0.0000 30944.0127 -117390.6289 300.8595 -148334.6416 -117347.6217 299.7335 -97.9664 -135.4299 496716.7673 -3.3396 -3.5474
ENERGY: 27000 1639.3743 2349.1072 3192.5754 0.0000 -175812.4741 20193.2003 236.3175 0.0000 30893.6756 -117308.2238 300.3701 -148201.8994 -117270.2319 300.2561 -55.1115 -33.6801 498972.5196 7.9913 7.8228
ENERGY: 28000 1637.4316 2408.4980 3197.8255 0.0000 -176119.3888 20168.4539 251.4802 0.0000 30963.6608 -117492.0388 301.0505 -148455.6996 -117447.9863 299.7995 52.0797 1.7782 497743.1326 -2.8712 -2.5238
ENERGY: 29000 1635.2303 2360.7748 3208.0796 0.0000 -176323.3976 20043.5884 252.0342 0.0000 30695.4029 -118128.2875 298.4423 -148823.6904 -118092.4767 297.1450 -181.2125 -135.5852 497344.8823 2.9757 3.0124
ENERGY: 30000 1637.0144 2363.3515 3175.9732 0.0000 -175808.0478 20189.9367 244.0236 0.0000 30803.7747 -117393.9737 299.4960 -148197.7484 -117345.2014 298.8970 26.9015 -44.1264 497817.0879 8.7853 9.0457
TCL: Setting parameter constraintScaling to 0.15625
TCL: Running for 5000 steps
ETITLE: TS BOND ANGLE DIHED IMPRP ELECT VDW BOUNDARY MISC KINETIC TOTAL TEMP POTENTIAL TOTAL3 TEMPAVG PRESSURE GPRESSURE VOLUME PRESSAVG GPRESSAVG
ENERGY: 30000 1637.0144 2363.3515 3175.9732 0.0000 -175808.0478 20189.9367 122.0118 0.0000 30801.7220 -117518.0382 299.4760 -148319.7602 -117474.3863 299.4760 27.2972 -48.4974 497817.0879 27.2972 -48.4974
ENERGY: 31000 1662.2135 2357.3535 3236.5210 0.0000 -175523.8714 20031.2143 188.1093 0.0000 30763.3250 -117285.1347 299.1027 -148048.4597 -117241.5963 299.9640 -71.2219 -33.0920 498453.9429 -1.5731 -0.7447
ENERGY: 32000 1598.4058 2451.8929 3190.6348 0.0000 -175738.4644 20123.5442 198.8413 0.0000 30908.9307 -117266.2146 300.5184 -148175.1453 -117225.8549 300.6329 -124.3266 -14.7456 498785.3884 -1.1295 -1.1625
ENERGY: 33000 1590.2893 2362.2529 3211.9174 0.0000 -175148.7803 19916.3176 236.8597 0.0000 30831.4066 -116999.7366 299.7647 -147831.1433 -116952.2748 300.8622 91.6478 143.5421 498124.9472 2.7706 2.7555
ENERGY: 34000 1612.0990 2396.8025 3201.8456 0.0000 -175549.6241 19984.2416 209.6638 0.0000 30826.2225 -117318.7492 299.7143 -148144.9717 -117277.7840 300.0769 -35.9310 -57.6533 498069.2365 -6.7327 -7.3184
ENERGY: 35000 1629.6198 2426.8441 3196.0139 0.0000 -175891.3412 20069.7389 213.4107 0.0000 30816.0355 -117539.6784 299.6152 -148355.7139 -117490.8575 301.1274 -45.9562 -27.7905 497364.5018 3.5770 3.5692
TCL: Setting parameter constraintScaling to 0.078125
TCL: Running for 5000 steps
ETITLE: TS BOND ANGLE DIHED IMPRP ELECT VDW BOUNDARY MISC KINETIC TOTAL TEMP POTENTIAL TOTAL3 TEMPAVG PRESSURE GPRESSURE VOLUME PRESSAVG GPRESSAVG
ENERGY: 35000 1629.6198 2426.8441 3196.0139 0.0000 -175891.3412 20069.7389 106.7053 0.0000 30814.0138 -117648.4054 299.5956 -148462.4192 -117604.0945 299.5956 -71.6078 -61.5677 497364.5018 -71.6078 -61.5677
ENERGY: 36000 1656.8408 2344.0310 3216.2567 0.0000 -175935.0053 20101.8703 145.6235 0.0000 30689.7730 -117780.6099 298.3876 -148470.3829 -117726.8904 300.1073 -15.4513 53.2097 496805.6047 0.4874 0.6545
ENERGY: 37000 1616.2506 2392.6547 3217.1185 0.0000 -176105.8784 20192.5376 148.6781 0.0000 30778.3549 -117760.2840 299.2489 -148538.6389 -117707.7245 299.9450 96.3673 65.8499 498369.8762 13.7825 13.5570
ENERGY: 38000 1647.3465 2396.6144 3191.4920 0.0000 -175811.9532 20181.2356 152.1371 0.0000 30778.9447 -117464.1830 299.2546 -148243.1276 -117420.7808 299.8014 -13.7238 -49.4140 497341.1708 -4.2122 -4.7275
ENERGY: 39000 1608.4641 2483.0060 3246.7663 0.0000 -176116.1389 20125.5026 144.5386 0.0000 30606.9698 -117900.8916 297.5825 -148507.8614 -117855.9937 299.1384 -0.9986 61.6759 496160.2150 -1.1307 -1.3530
ENERGY: 40000 1647.3214 2404.8214 3254.6046 0.0000 -176337.9860 20228.4125 147.8323 0.0000 30601.2672 -118053.7266 297.5271 -148654.9937 -118008.2481 298.5505 -123.5848 -25.5221 496605.6406 -13.2589 -13.0648
TCL: Setting parameter constraintScaling to 0.0390625
TCL: Running for 5000 steps
ETITLE: TS BOND ANGLE DIHED IMPRP ELECT VDW BOUNDARY MISC KINETIC TOTAL TEMP POTENTIAL TOTAL3 TEMPAVG PRESSURE GPRESSURE VOLUME PRESSAVG GPRESSAVG
ENERGY: 40000 1647.3214 2404.8214 3254.6046 0.0000 -176337.9860 20228.4125 73.9162 0.0000 30599.1970 -118129.7129 297.5070 -148728.9099 -118088.9663 297.5070 -139.7012 -37.2213 496605.6406 -139.7012 -37.2213
ENERGY: 41000 1585.0979 2451.9991 3207.9285 0.0000 -176009.9655 20047.0397 112.1963 0.0000 30824.0475 -117781.6565 299.6931 -148605.7040 -117732.5249 298.9311 -1.6627 -46.3964 497197.7251 16.5074 16.1531
ENERGY: 42000 1687.7219 2458.1988 3205.2373 0.0000 -175965.1545 20122.4473 118.8748 0.0000 30977.5836 -117395.0907 301.1859 -148372.6743 -117349.7983 300.5518 -222.1579 -114.1131 496704.2912 -0.8382 -0.4957
ENERGY: 43000 1623.2538 2380.4213 3208.6935 0.0000 -175424.6543 19876.5534 119.4282 0.0000 30873.5137 -117342.7905 300.1741 -148216.3041 -117288.9675 300.3383 -40.5625 -40.5648 496343.5315 2.0253 2.0134
ENERGY: 44000 1576.0736 2369.3827 3220.8092 0.0000 -175500.5929 19934.7282 117.9893 0.0000 30984.6025 -117297.0074 301.2541 -148281.6099 -117248.2687 300.6704 73.9228 30.4390 497580.1200 13.5203 13.3695
ENERGY: 45000 1659.9970 2474.3438 3229.6658 0.0000 -175721.0767 20065.4362 122.1621 0.0000 30630.6395 -117538.8323 297.8127 -148169.4719 -117490.7670 299.6794 -58.1627 -23.8895 497218.8410 1.3614 1.6469
TCL: Setting parameter constraintScaling to 0.01953125
TCL: Running for 5000 steps
ETITLE: TS BOND ANGLE DIHED IMPRP ELECT VDW BOUNDARY MISC KINETIC TOTAL TEMP POTENTIAL TOTAL3 TEMPAVG PRESSURE GPRESSURE VOLUME PRESSAVG GPRESSAVG
ENERGY: 45000 1659.9970 2474.3438 3229.6658 0.0000 -175721.0767 20065.4362 61.0810 0.0000 30628.6138 -117601.9391 297.7930 -148230.5529 -117561.0625 297.7930 -72.3729 -37.7160 497218.8410 -72.3729 -37.7160
ENERGY: 46000 1674.0655 2398.2332 3218.0140 0.0000 -175883.2364 20052.3112 72.6895 0.0000 30984.7289 -117483.1941 301.2554 -148467.9230 -117440.9520 299.8144 -21.7537 -4.5065 497051.3977 0.9256 1.5010
ENERGY: 47000 1652.0672 2372.9881 3223.0481 0.0000 -175981.9136 19947.0411 83.3057 0.0000 30709.3411 -117994.1223 298.5779 -148703.4634 -117938.2882 298.6681 -19.2501 -17.1595 496799.7361 1.6747 2.0907
ENERGY: 48000 1614.9250 2323.4357 3222.9100 0.0000 -176100.1809 20027.8660 80.0688 0.0000 30787.6280 -118043.3475 299.3390 -148830.9755 -118014.0969 299.2191 -82.1465 -16.1458 497582.0580 6.3468 6.6803
ENERGY: 49000 1585.1437 2432.5784 3248.3017 0.0000 -176179.3784 20125.6831 86.3636 0.0000 30740.9574 -117960.3505 298.8853 -148701.3078 -117923.2205 298.9744 -14.8356 59.8127 495245.3102 -17.7908 -18.7566
ENERGY: 50000 1569.6189 2437.1039 3195.0580 0.0000 -176250.3771 20184.4013 85.3071 0.0000 30728.2382 -118050.6496 298.7616 -148778.8878 -117996.2801 299.5848 61.4178 62.2778 497036.3269 14.0175 14.1372
TCL: Setting parameter constraintScaling to 0
TCL: Running for 5000 steps
ETITLE: TS BOND ANGLE DIHED IMPRP ELECT VDW BOUNDARY MISC KINETIC TOTAL TEMP POTENTIAL TOTAL3 TEMPAVG PRESSURE GPRESSURE VOLUME PRESSAVG GPRESSAVG
ENERGY: 50000 1569.6189 2437.1039 3195.0580 0.0000 -176250.3771 20184.4013 0.0000 0.0000 30726.1691 -118138.0257 298.7415 -148864.1949 -118097.5656 298.7415 56.6941 49.9636 497036.3269 56.6941 49.9636
ENERGY: 51000 1616.6393 2404.6378 3200.2428 0.0000 -176386.8913 20254.1869 0.0000 0.0000 30907.1077 -118004.0769 300.5007 -148911.1845 -117950.4551 299.7781 -54.5035 -0.7737 498029.2167 10.5739 10.5238
ENERGY: 52000 1560.6929 2441.9710 3230.5161 0.0000 -176379.3971 20279.5975 0.0000 0.0000 30748.6825 -118117.9372 298.9604 -148866.6196 -118070.0534 298.4682 63.6219 10.3857 497810.5987 3.3576 3.0759
ENERGY: 53000 1583.4023 2401.0445 3210.8605 0.0000 -176138.7318 20152.4272 0.0000 0.0000 30916.2733 -117874.7240 300.5898 -148790.9973 -117826.8609 299.0187 -35.3088 -5.7207 497624.2131 6.1143 6.0216
ENERGY: 54000 1609.5497 2430.0641 3199.0348 0.0000 -176218.5453 20053.2920 0.0000 0.0000 30936.9849 -117989.6198 300.7912 -148926.6047 -117943.7429 299.7262 -58.6237 -28.3809 498054.2432 6.4322 6.3065
ENERGY: 55000 1629.6191 2355.6750 3186.5889 0.0000 -176159.1052 20374.3743 0.0000 0.0000 30754.4649 -117858.3829 299.0166 -148612.8478 -117820.6955 299.6266 47.3825 60.6659 498933.2861 6.5371 6.8680
