Info: SIMULATION PARAMETERS:
Info: TIMESTEP               2
Info: NUMBER OF STEPS        0
Info: STEPS PER CYCLE        10
Info: PERIODIC CELL BASIS 1  72.449 0 0
Info: PERIODIC CELL BASIS 2  0 93.247 0
Info: PERIODIC CELL BASIS 3  0 0 79.185
Info: PERIODIC CELL CENTER   -0.248 -0.156 -0.047
Info: WRAPPING WATERS AROUND PERIODIC BOUNDARIES ON OUTPUT.
Info: WRAPPING ALL CLUSTERS AROUND PERIODIC BOUNDARIES ON OUTPUT.
Info: FIRST LDB TIMESTEP     50
Info: LAST LDB TIMESTEP     -1
Info: HOM BACKGROUND SCALING 1
Info: PME BACKGROUND SCALING 1
Info: MIN ATOMS PER PATCH    40
Info: INITIAL TEMPERATURE    0
Info: CENTER OF MASS MOVING INITIALLY? NO
Info: DIELECTRIC             1
Info: EXCLUDE                SCALED ONE-FOUR
Info: 1-4 ELECTROSTATICS SCALED BY 0.833333
Info: MODIFIED 1-4 VDW PARAMETERS WILL BE USED
Info: NO DCD TRAJECTORY OUTPUT
Info: NO EXTENDED SYSTEM TRAJECTORY OUTPUT
Info: NO VELOCITY DCD OUTPUT
Info: NO FORCE DCD OUTPUT
Info: OUTPUT FILENAME        ../replicas/rep19/equilibration/eq0
Info: NO RESTART FILE
Info: SWITCHING ACTIVE
Info: SWITCHING ON           10
Info: SWITCHING OFF          12
Info: PAIRLIST DISTANCE      13.5
Info: PAIRLIST SHRINK RATE   0.01
Info: PAIRLIST GROW RATE     0.01
Info: PAIRLIST TRIGGER       0.3
Info: PAIRLISTS PER CYCLE    2
Info: PAIRLISTS ENABLED
Info: MARGIN                 0
Info: HYDROGEN GROUP CUTOFF  2.5
Info: PATCH DIMENSION        16
Info: ENERGY OUTPUT STEPS    500
Info: CROSSTERM ENERGY INCLUDED IN DIHEDRAL
Info: TIMING OUTPUT STEPS    5000
Info: PRESSURE OUTPUT STEPS  500
Info: HARMONIC CONSTRAINTS ACTIVE
Info: HARMONIC CONS EXP      2
Info: HARMONIC CONS SCALING  10
Info: CONJUGATE GRADIENT MINIMIZATION ACTIVE
Info: LINE MINIMIZATION GOAL = 0.001
Info: BABY STEP SIZE = 0.01
Info: TINY STEP SIZE = 1e-06
Info: PARTICLE MESH EWALD (PME) ACTIVE
Info: PME TOLERANCE               1e-06
Info: PME EWALD COEFFICIENT       0.257952
Info: PME INTERPOLATION ORDER     4
Info: PME GRID DIMENSIONS         80 96 80
Info: PME MAXIMUM GRID SPACING    1
Info: FULL ELECTROSTATIC EVALUATION FREQUENCY      2
Info: USING VERLET I (r-RESPA) MTS SCHEME.
Info: C1 SPLITTING OF LONG RANGE ELECTROSTATICS
Info: PLACING ATOMS IN PATCHES BY HYDROGEN GROUPS
Info: RIGID BONDS TO HYDROGEN : ALL
Info:         ERROR TOLERANCE : 1e-05
Info:          MAX ITERATIONS : 100
Info: RIGID WATER USING SETTLE ALGORITHM
Info: RANDOM NUMBER SEED     1503691519
Info: USE HYDROGEN BONDS?    NO
Info: Using AMBER format force field!
Info: AMBER PARM FILE        ../build/complex.top
Info: COORDINATE PDB         ../build/complex.pdb
Info: Exclusions in PARM file will be ignored!
Info: SCNB (VDW SCALING)     2
Info: USING ARITHMETIC MEAN TO COMBINE L-J SIGMA PARAMETERS
Info: SUMMARY OF PARAMETERS:
Info: 71 BONDS
Info: 145 ANGLES
Info: 76 DIHEDRAL
Info: 0 IMPROPER
Info: 0 CROSSTERM
Info: 0 VDW
Info: 190 VDW_PAIRS
Info: 0 NBTHOLE_PAIRS
Info: STRUCTURE SUMMARY:
Info: 49394 ATOMS
Info: 49448 BONDS
Info: 8698 ANGLES
Info: 18780 DIHEDRALS
Info: 0 IMPROPERS
Info: 0 CROSSTERMS
Info: 0 EXCLUSIONS
Info: 2336 CONSTRAINTS
Info: 47058 RIGID BONDS
Info: 101124 DEGREES OF FREEDOM
Info: 17225 HYDROGEN GROUPS
Info: 4 ATOMS IN LARGEST HYDROGEN GROUP
Info: 17225 MIGRATION GROUPS
Info: 4 ATOMS IN LARGEST MIGRATION GROUP
Info: TOTAL MASS = 301478 amu
Info: TOTAL CHARGE = 1.00115e-05 e
Info: MASS DENSITY = 0.935846 g/cm^3
Info: ATOM DENSITY = 0.0923345 atoms/A^3
Info: ADDED 70656 IMPLICIT EXCLUSIONS
Info: NONBONDED TABLE R-SQUARED SPACING: 0.0625
Info: NONBONDED TABLE SIZE: 769 POINTS
Info: REMOVING COM VELOCITY 0 0 0
TCL: Minimizing for 100 steps
ETITLE: TS BOND ANGLE DIHED IMPRP ELECT VDW BOUNDARY MISC KINETIC TOTAL TEMP POTENTIAL TOTAL3 TEMPAVG PRESSURE GPRESSURE VOLUME PRESSAVG GPRESSAVG
ENERGY: 0 155.4176 1012.2698 2855.7272 0.0000 -154496.7912 207729.2052 0.0468 0.0000 0.0000 57255.8754 0.0000 57255.8754 57255.8754 0.0000 116350.2532 86546.1670 534946.2959 116350.2532 86546.1670
ENERGY: 20 304.7547 935.7911 2893.4663 0.0000 -158672.9403 17936.6595 143.9454 0.0000 0.0000 -136458.3233 0.0000 -136458.3233 -136458.3233 0.0000 16523.9389 -239.4557 534946.2959 16523.9389 -239.4557
ENERGY: 40 198.7425 799.5725 2896.9273 0.0000 -162811.4532 16417.9537 221.3029 0.0000 0.0000 -142276.9544 0.0000 -142276.9544 -142276.9544 0.0000 15011.2704 -2135.4697 534946.2959 15011.2704 -2135.4697
ENERGY: 60 130.5284 715.3440 2898.2166 0.0000 -167496.1549 15446.7543 315.2796 0.0000 0.0000 -147990.0320 0.0000 -147990.0320 -147990.0320 0.0000 13793.8843 -3799.3979 534946.2959 13793.8843 -3799.3979
ENERGY: 80 431.2732 765.6309 2904.3783 0.0000 -169937.5140 15121.1542 372.0119 0.0000 0.0000 -150343.0654 0.0000 -150343.0654 -150343.0654 0.0000 13270.3346 -4577.2397 534946.2959 13270.3346 -4577.2397
ENERGY: 100 119.3904 710.0607 2905.2590 0.0000 -171259.7207 14991.7859 387.3614 0.0000 0.0000 -152145.8633 0.0000 -152145.8633 -152145.8633 0.0000 13056.2640 -4908.1753 534946.2959 13056.2640 -4908.1753
TCL: Setting parameter constraintScaling to 5.0
TCL: Minimizing for 100 steps
ETITLE: TS BOND ANGLE DIHED IMPRP ELECT VDW BOUNDARY MISC KINETIC TOTAL TEMP POTENTIAL TOTAL3 TEMPAVG PRESSURE GPRESSURE VOLUME PRESSAVG GPRESSAVG
ENERGY: 100 119.3904 710.0607 2905.2590 0.0000 -171259.7207 14991.7859 193.6807 0.0000 0.0000 -152339.5440 0.0000 -152339.5440 -152339.5440 0.0000 13672.7702 -23021.8216 534946.2959 13672.7702 -23021.8216
ENERGY: 120 108.8909 687.5874 2912.9270 0.0000 -172865.8671 14798.2713 281.1916 0.0000 0.0000 -154076.9989 0.0000 -154076.9989 -154076.9989 0.0000 13218.2565 -4906.0128 534946.2959 13218.2565 -4906.0128
ENERGY: 140 309.5471 708.8891 2913.8027 0.0000 -174236.4045 14731.4951 326.6315 0.0000 0.0000 -155246.0389 0.0000 -155246.0389 -155246.0389 0.0000 12971.5529 -5303.1840 534946.2959 12971.5529 -5303.1840
ENERGY: 160 264.6357 682.9397 2923.1394 0.0000 -176271.8165 14757.1276 382.7581 0.0000 0.0000 -157261.2160 0.0000 -157261.2160 -157261.2160 0.0000 12741.4034 -5741.5768 534946.2959 12741.4034 -5741.5768
ENERGY: 180 269.2839 744.0833 2928.5659 0.0000 -178992.5923 15023.0435 473.1558 0.0000 0.0000 -159554.4599 0.0000 -159554.4599 -159554.4599 0.0000 12521.7541 -6222.9253 534946.2959 12521.7541 -6222.9253
ENERGY: 200 238.5142 694.1422 2941.3379 0.0000 -181554.3257 15586.6033 546.2302 0.0000 0.0000 -161547.4977 0.0000 -161547.4977 -161547.4977 0.0000 12582.6200 -6419.9321 534946.2959 12582.6200 -6419.9321
TCL: Setting parameter constraintScaling to 2.5
TCL: Minimizing for 100 steps
ETITLE: TS BOND ANGLE DIHED IMPRP ELECT VDW BOUNDARY MISC KINETIC TOTAL TEMP POTENTIAL TOTAL3 TEMPAVG PRESSURE GPRESSURE VOLUME PRESSAVG GPRESSAVG
ENERGY: 200 238.5142 694.1422 2941.3379 0.0000 -181554.3257 15586.6033 273.1151 0.0000 0.0000 -161820.6128 0.0000 -161820.6128 -161820.6128 0.0000 13229.4799 -25650.5816 534946.2959 13229.4799 -25650.5816
ENERGY: 220 246.1006 677.6873 2933.0019 0.0000 -182075.3520 15471.3053 337.7349 0.0000 0.0000 -162409.5221 0.0000 -162409.5221 -162409.5221 0.0000 12971.1263 -6086.1963 534946.2959 12971.1263 -6086.1963
ENERGY: 240 115.5837 674.1307 2928.4184 0.0000 -182571.2814 15510.3774 345.0658 0.0000 0.0000 -162997.7054 0.0000 -162997.7054 -162997.7054 0.0000 13036.1546 -6112.8509 534946.2959 13036.1546 -6112.8509
ENERGY: 260 144.8127 675.4359 2920.9148 0.0000 -184109.9594 15840.6935 391.2012 0.0000 0.0000 -164136.9014 0.0000 -164136.9014 -164136.9014 0.0000 13045.5289 -6252.2288 534946.2959 13045.5289 -6252.2288
ENERGY: 280 172.5056 700.7102 2917.6898 0.0000 -185424.6235 16230.3508 454.4224 0.0000 0.0000 -164948.9447 0.0000 -164948.9447 -164948.9447 0.0000 13144.9085 -6333.3884 534946.2959 13144.9085 -6333.3884
ENERGY: 300 126.6107 639.3152 2916.3166 0.0000 -186093.9079 16445.9618 480.9099 0.0000 0.0000 -165484.7938 0.0000 -165484.7938 -165484.7938 0.0000 13208.5759 -6338.1007 534946.2959 13208.5759 -6338.1007
TCL: Setting parameter constraintScaling to 1.25
TCL: Minimizing for 100 steps
ETITLE: TS BOND ANGLE DIHED IMPRP ELECT VDW BOUNDARY MISC KINETIC TOTAL TEMP POTENTIAL TOTAL3 TEMPAVG PRESSURE GPRESSURE VOLUME PRESSAVG GPRESSAVG
ENERGY: 300 126.6107 639.3152 2916.3166 0.0000 -186093.9079 16445.9618 240.4549 0.0000 0.0000 -165725.2488 0.0000 -165725.2488 -165725.2488 0.0000 13656.7061 -26348.1022 534946.2959 13656.7061 -26348.1022
ENERGY: 320 132.5243 624.6863 2911.1379 0.0000 -186671.1841 16581.4882 272.9809 0.0000 0.0000 -166148.3665 0.0000 -166148.3665 -166148.3665 0.0000 13630.0504 -5970.6337 534946.2959 13630.0504 -5970.6337
ENERGY: 340 156.5123 626.1669 2910.8990 0.0000 -187380.1126 16811.8179 296.5872 0.0000 0.0000 -166578.1291 0.0000 -166578.1291 -166578.1291 0.0000 13640.4375 -6012.2321 534946.2959 13640.4375 -6012.2321
ENERGY: 360 133.3274 679.1222 2909.8324 0.0000 -188845.9939 17313.1235 357.4307 0.0000 0.0000 -167453.1578 0.0000 -167453.1578 -167453.1578 0.0000 13852.7692 -6007.8897 534946.2959 13852.7692 -6007.8897
ENERGY: 380 151.2774 644.8429 2902.2746 0.0000 -190392.3714 17928.0047 398.9831 0.0000 0.0000 -168366.9886 0.0000 -168366.9886 -168366.9886 0.0000 14042.2706 -5964.3667 534946.2959 14042.2706 -5964.3667
ENERGY: 400 133.9962 647.2204 2901.8126 0.0000 -190767.5972 18042.6522 405.3932 0.0000 0.0000 -168636.5225 0.0000 -168636.5225 -168636.5225 0.0000 14164.6424 -5913.0859 534946.2959 14164.6424 -5913.0859
TCL: Setting parameter constraintScaling to 0.625
TCL: Minimizing for 100 steps
ETITLE: TS BOND ANGLE DIHED IMPRP ELECT VDW BOUNDARY MISC KINETIC TOTAL TEMP POTENTIAL TOTAL3 TEMPAVG PRESSURE GPRESSURE VOLUME PRESSAVG GPRESSAVG
ENERGY: 400 133.9962 647.2204 2901.8126 0.0000 -190767.5972 18042.6522 202.6966 0.0000 0.0000 -168839.2191 0.0000 -168839.2191 -168839.2191 0.0000 14466.9125 -26630.8247 534946.2959 14466.9125 -26630.8247
ENERGY: 420 154.8370 642.5022 2893.4594 0.0000 -191233.1781 18156.3935 224.0850 0.0000 0.0000 -169161.9011 0.0000 -169161.9011 -169161.9011 0.0000 14461.1612 -5669.7027 534946.2959 14461.1612 -5669.7027
ENERGY: 440 341.2872 668.4267 2894.2632 0.0000 -191985.4205 18394.0733 253.0966 0.0000 0.0000 -169434.2733 0.0000 -169434.2733 -169434.2733 0.0000 14380.6078 -5788.7126 534946.2959 14380.6078 -5788.7126
ENERGY: 460 168.5107 660.4244 2887.3199 0.0000 -193363.3416 18904.9932 295.9441 0.0000 0.0000 -170446.1493 0.0000 -170446.1493 -170446.1493 0.0000 14710.3187 -5662.6078 534946.2959 14710.3187 -5662.6078
ENERGY: 480 148.2336 640.5049 2878.7761 0.0000 -194119.9020 19221.9199 319.5687 0.0000 0.0000 -170910.8988 0.0000 -170910.8988 -170910.8988 0.0000 14815.7902 -5624.8472 534946.2959 14815.7902 -5624.8472
ENERGY: 500 152.4723 653.6565 2878.1856 0.0000 -194263.2896 19280.9424 318.0414 0.0000 0.0000 -170979.9914 0.0000 -170979.9914 -170979.9914 0.0000 14869.8675 -5596.8486 534946.2959 14869.8675 -5596.8486
TCL: Setting parameter constraintScaling to 0.3125
TCL: Minimizing for 100 steps
ETITLE: TS BOND ANGLE DIHED IMPRP ELECT VDW BOUNDARY MISC KINETIC TOTAL TEMP POTENTIAL TOTAL3 TEMPAVG PRESSURE GPRESSURE VOLUME PRESSAVG GPRESSAVG
ENERGY: 500 152.4723 653.6565 2878.1856 0.0000 -194263.2896 19280.9424 159.0207 0.0000 0.0000 -171139.0121 0.0000 -171139.0121 -171139.0121 0.0000 15069.2362 -26848.9304 534946.2959 15069.2362 -26848.9304
ENERGY: 520 151.2543 642.6432 2878.6497 0.0000 -194447.9487 19340.4046 165.6343 0.0000 0.0000 -171269.3626 0.0000 -171269.3626 -171269.3626 0.0000 15026.0341 -5432.7857 534946.2959 15026.0341 -5432.7857
ENERGY: 540 178.1934 633.7535 2876.7122 0.0000 -194898.5347 19503.8691 176.1530 0.0000 0.0000 -171529.8535 0.0000 -171529.8535 -171529.8535 0.0000 15040.5674 -5447.5722 534946.2959 15040.5674 -5447.5722
ENERGY: 560 144.0422 662.5782 2871.3302 0.0000 -195743.3679 19814.6481 194.5416 0.0000 0.0000 -172056.2275 0.0000 -172056.2275 -172056.2275 0.0000 15312.6496 -5337.0110 534946.2959 15312.6496 -5337.0110
ENERGY: 580 162.3391 644.1345 2870.1200 0.0000 -196042.5597 19919.5196 200.9895 0.0000 0.0000 -172245.4570 0.0000 -172245.4570 -172245.4570 0.0000 15263.1051 -5381.4303 534946.2959 15263.1051 -5381.4303
ENERGY: 600 171.5304 664.3003 2869.4850 0.0000 -196397.1926 20047.8102 205.5860 0.0000 0.0000 -172438.4808 0.0000 -172438.4808 -172438.4808 0.0000 15359.2803 -5344.8614 534946.2959 15359.2803 -5344.8614
TCL: Setting parameter constraintScaling to 0.15625
TCL: Minimizing for 100 steps
ETITLE: TS BOND ANGLE DIHED IMPRP ELECT VDW BOUNDARY MISC KINETIC TOTAL TEMP POTENTIAL TOTAL3 TEMPAVG PRESSURE GPRESSURE VOLUME PRESSAVG GPRESSAVG
ENERGY: 600 171.5304 664.3003 2869.4850 0.0000 -196397.1926 20047.8102 102.7930 0.0000 0.0000 -172541.2738 0.0000 -172541.2738 -172541.2738 0.0000 15475.6645 -26944.4045 534946.2959 15475.6645 -26944.4045
ENERGY: 620 158.1591 639.3478 2866.2537 0.0000 -196500.1787 20083.5473 105.1752 0.0000 0.0000 -172647.6957 0.0000 -172647.6957 -172647.6957 0.0000 15452.7800 -5245.0730 534946.2959 15452.7800 -5245.0730
ENERGY: 640 221.0535 657.9894 2865.4221 0.0000 -197082.7171 20293.2558 115.1355 0.0000 0.0000 -172929.8607 0.0000 -172929.8607 -172929.8607 0.0000 15503.9789 -5251.5898 534946.2959 15503.9789 -5251.5898
ENERGY: 660 171.1287 648.9392 2859.7865 0.0000 -197478.6995 20435.5564 119.6717 0.0000 0.0000 -173243.6170 0.0000 -173243.6170 -173243.6170 0.0000 15631.0674 -5187.8907 534946.2959 15631.0674 -5187.8907
ENERGY: 680 177.5152 661.5717 2858.0893 0.0000 -197983.7016 20626.0883 127.1946 0.0000 0.0000 -173533.2426 0.0000 -173533.2426 -173533.2426 0.0000 15690.7477 -5187.4051 534946.2959 15690.7477 -5187.4051
ENERGY: 700 167.5563 648.9934 2852.5615 0.0000 -198237.6569 20719.7909 130.6332 0.0000 0.0000 -173718.1216 0.0000 -173718.1216 -173718.1216 0.0000 15744.0319 -5159.1152 534946.2959 15744.0319 -5159.1152
TCL: Setting parameter constraintScaling to 0.078125
TCL: Minimizing for 100 steps
ETITLE: TS BOND ANGLE DIHED IMPRP ELECT VDW BOUNDARY MISC KINETIC TOTAL TEMP POTENTIAL TOTAL3 TEMPAVG PRESSURE GPRESSURE VOLUME PRESSAVG GPRESSAVG
ENERGY: 700 167.5563 648.9934 2852.5615 0.0000 -198237.6569 20719.7909 65.3166 0.0000 0.0000 -173783.4382 0.0000 -173783.4382 -173783.4382 0.0000 15811.5947 -27046.6204 534946.2959 15811.5947 -27046.6204
ENERGY: 720 175.1170 656.8680 2855.9573 0.0000 -198680.1311 20872.4766 69.7861 0.0000 0.0000 -174049.9261 0.0000 -174049.9261 -174049.9261 0.0000 15867.2322 -5091.2476 534946.2959 15867.2322 -5091.2476
ENERGY: 740 169.4249 652.1204 2848.6717 0.0000 -199005.3013 20993.2712 72.6244 0.0000 0.0000 -174269.1886 0.0000 -174269.1886 -174269.1886 0.0000 15919.5146 -5072.4119 534946.2959 15919.5146 -5072.4119
ENERGY: 760 158.5032 647.7385 2845.3321 0.0000 -199457.5606 21158.6471 76.8655 0.0000 0.0000 -174570.4742 0.0000 -174570.4742 -174570.4742 0.0000 16001.7044 -5044.5701 534946.2959 16001.7044 -5044.5701
ENERGY: 780 166.7137 672.9190 2843.2357 0.0000 -199764.2697 21279.2673 78.7875 0.0000 0.0000 -174723.3466 0.0000 -174723.3466 -174723.3466 0.0000 16050.9655 -5034.1723 534946.2959 16050.9655 -5034.1723
ENERGY: 800 181.4329 682.7029 2843.9518 0.0000 -200419.8800 21517.4381 84.8294 0.0000 0.0000 -175109.5249 0.0000 -175109.5249 -175109.5249 0.0000 16161.2426 -4992.2715 534946.2959 16161.2426 -4992.2715
TCL: Setting parameter constraintScaling to 0.0390625
TCL: Minimizing for 100 steps
ETITLE: TS BOND ANGLE DIHED IMPRP ELECT VDW BOUNDARY MISC KINETIC TOTAL TEMP POTENTIAL TOTAL3 TEMPAVG PRESSURE GPRESSURE VOLUME PRESSAVG GPRESSAVG
ENERGY: 800 181.4329 682.7029 2843.9518 0.0000 -200419.8800 21517.4381 42.4147 0.0000 0.0000 -175151.9396 0.0000 -175151.9396 -175151.9396 0.0000 16201.0086 -27179.5334 534946.2959 16201.0086 -27179.5334
ENERGY: 820 178.7612 675.3700 2835.3109 0.0000 -200695.9870 21631.9304 43.7231 0.0000 0.0000 -175330.8913 0.0000 -175330.8913 -175330.8913 0.0000 16261.6197 -4925.4378 534946.2959 16261.6197 -4925.4378
ENERGY: 840 359.8850 745.6288 2845.0509 0.0000 -201023.7890 21749.1767 45.8066 0.0000 0.0000 -175278.2409 0.0000 -175278.2409 -175278.2409 0.0000 16241.4502 -4978.7878 534946.2959 16241.4502 -4978.7878
ENERGY: 860 168.6238 663.0218 2834.1076 0.0000 -201464.7338 21916.5360 47.6227 0.0000 0.0000 -175834.8219 0.0000 -175834.8219 -175834.8219 0.0000 16409.6213 -4873.0495 534946.2959 16409.6213 -4873.0495
ENERGY: 880 170.7770 655.5372 2829.5633 0.0000 -201578.0944 21966.3083 48.1078 0.0000 0.0000 -175907.8008 0.0000 -175907.8008 -175907.8008 0.0000 16420.9991 -4875.4442 534946.2959 16420.9991 -4875.4442
ENERGY: 900 196.0983 675.3232 2826.7038 0.0000 -202158.9080 22208.9673 51.0596 0.0000 0.0000 -176200.7557 0.0000 -176200.7557 -176200.7557 0.0000 16543.9906 -4819.3924 534946.2959 16543.9906 -4819.3924
TCL: Setting parameter constraintScaling to 0.01953125
TCL: Minimizing for 100 steps
ETITLE: TS BOND ANGLE DIHED IMPRP ELECT VDW BOUNDARY MISC KINETIC TOTAL TEMP POTENTIAL TOTAL3 TEMPAVG PRESSURE GPRESSURE VOLUME PRESSAVG GPRESSAVG
ENERGY: 900 196.0983 675.3232 2826.7038 0.0000 -202158.9080 22208.9673 25.5298 0.0000 0.0000 -176226.2855 0.0000 -176226.2855 -176226.2855 0.0000 16566.2601 -27232.5400 534946.2959 16566.2601 -27232.5400
ENERGY: 920 165.6542 653.1249 2827.5020 0.0000 -202244.8122 22227.7901 25.6306 0.0000 0.0000 -176345.1105 0.0000 -176345.1105 -176345.1105 0.0000 16566.5915 -4806.9269 534946.2959 16566.5915 -4806.9269
ENERGY: 940 172.2662 690.4221 2833.8570 0.0000 -202514.4294 22332.9093 26.1981 0.0000 0.0000 -176458.7768 0.0000 -176458.7768 -176458.7768 0.0000 16645.2479 -4765.3396 534946.2959 16645.2479 -4765.3396
ENERGY: 960 167.8512 655.0439 2824.5842 0.0000 -202599.9872 22367.9245 26.6014 0.0000 0.0000 -176557.9820 0.0000 -176557.9820 -176557.9820 0.0000 16637.7764 -4779.5619 534946.2959 16637.7764 -4779.5619
ENERGY: 980 170.5897 676.7544 2823.0518 0.0000 -202812.6179 22470.8214 27.3828 0.0000 0.0000 -176644.0177 0.0000 -176644.0177 -176644.0177 0.0000 16693.6922 -4743.1027 534946.2959 16693.6922 -4743.1027
ENERGY: 1000 173.2637 662.2616 2821.0910 0.0000 -203407.1243 22708.1311 28.7819 0.0000 0.0000 -177013.5949 0.0000 -177013.5949 -177013.5949 0.0000 16812.0038 -4696.0118 534946.2959 16812.0038 -4696.0118
TCL: Setting parameter constraintScaling to 0
TCL: Minimizing for 5000 steps
ETITLE: TS BOND ANGLE DIHED IMPRP ELECT VDW BOUNDARY MISC KINETIC TOTAL TEMP POTENTIAL TOTAL3 TEMPAVG PRESSURE GPRESSURE VOLUME PRESSAVG GPRESSAVG
ENERGY: 1000 173.2637 662.2616 2821.0910 0.0000 -203407.1243 22708.1311 0.0000 0.0000 0.0000 -177042.3768 0.0000 -177042.3768 -177042.3768 0.0000 16836.0868 -27259.6425 534946.2959 16836.0868 -27259.6425
ENERGY: 2000 168.6108 664.1212 2802.8579 0.0000 -213907.2930 27571.0037 0.0000 0.0000 0.0000 -182700.6994 0.0000 -182700.6994 -182700.6994 0.0000 19444.6969 -3258.9317 534946.2959 19444.6969 -3258.9317
ENERGY: 3000 181.7608 677.5908 2797.6178 0.0000 -217021.6925 28650.1530 0.0000 0.0000 0.0000 -184714.5701 0.0000 -184714.5701 -184714.5701 0.0000 19969.3323 -3048.0628 534946.2959 19969.3323 -3048.0628
ENERGY: 4000 166.7175 666.1983 2793.1988 0.0000 -218653.0852 29341.5841 0.0000 0.0000 0.0000 -185685.3865 0.0000 -185685.3865 -185685.3865 0.0000 20354.2780 -2828.4451 534946.2959 20354.2780 -2828.4451
ENERGY: 5000 164.6039 664.0834 2791.6851 0.0000 -219366.9988 29629.0054 0.0000 0.0000 0.0000 -186117.6210 0.0000 -186117.6210 -186117.6210 0.0000 20513.5633 -2740.9022 534946.2959 20513.5633 -2740.9022
ENERGY: 6000 164.9276 665.7800 2788.5667 0.0000 -219845.5616 29811.6019 0.0000 0.0000 0.0000 -186414.6854 0.0000 -186414.6854 -186414.6854 0.0000 20606.8227 -2695.2760 534946.2959 20606.8227 -2695.2760
