Info: SIMULATION PARAMETERS:
Info: TIMESTEP               1
Info: NUMBER OF STEPS        0
Info: STEPS PER CYCLE        10
Info: PERIODIC CELL BASIS 1  72.449 0 0
Info: PERIODIC CELL BASIS 2  0 93.247 0
Info: PERIODIC CELL BASIS 3  0 0 79.185
Info: PERIODIC CELL CENTER   -0.248 -0.156 -0.047
Info: WRAPPING WATERS AROUND PERIODIC BOUNDARIES ON OUTPUT.
Info: WRAPPING ALL CLUSTERS AROUND PERIODIC BOUNDARIES ON OUTPUT.
Info: FIRST LDB TIMESTEP     50
Info: LAST LDB TIMESTEP     -1
Info: HOM BACKGROUND SCALING 1
Info: PME BACKGROUND SCALING 1
Info: MIN ATOMS PER PATCH    40
Info: VELOCITY FILE          ../replicas/rep108/equilibration/eq1.vel
Info: CENTER OF MASS MOVING INITIALLY? NO
Info: DIELECTRIC             1
Info: EXCLUDE                SCALED ONE-FOUR
Info: 1-4 ELECTROSTATICS SCALED BY 0.833333
Info: MODIFIED 1-4 VDW PARAMETERS WILL BE USED
Info: DCD FILENAME           ../replicas/rep108/equilibration/eq2.dcd
Info: DCD FREQUENCY          5000
Info: DCD FIRST STEP         5000
Info: DCD FILE WILL CONTAIN UNIT CELL DATA
Info: XST FILENAME           ../replicas/rep108/equilibration/eq2.xst
Info: XST FREQUENCY          5000
Info: NO VELOCITY DCD OUTPUT
Info: NO FORCE DCD OUTPUT
Info: OUTPUT FILENAME        ../replicas/rep108/equilibration/eq2
Info: RESTART FILENAME       ../replicas/rep108/equilibration/eq2.restart
Info: RESTART FREQUENCY      5000
Info: BINARY RESTART FILES WILL BE USED
Info: SWITCHING ACTIVE
Info: SWITCHING ON           10
Info: SWITCHING OFF          12
Info: PAIRLIST DISTANCE      13.5
Info: PAIRLIST SHRINK RATE   0.01
Info: PAIRLIST GROW RATE     0.01
Info: PAIRLIST TRIGGER       0.3
Info: PAIRLISTS PER CYCLE    2
Info: PAIRLISTS ENABLED
Info: MARGIN                 0.48
Info: HYDROGEN GROUP CUTOFF  2.5
Info: PATCH DIMENSION        16.48
Info: ENERGY OUTPUT STEPS    500
Info: CROSSTERM ENERGY INCLUDED IN DIHEDRAL
Info: TIMING OUTPUT STEPS    5000
Info: PRESSURE OUTPUT STEPS  500
Info: HARMONIC CONSTRAINTS ACTIVE
Info: HARMONIC CONS EXP      2
Info: HARMONIC CONS SCALING  10
Info: LANGEVIN DYNAMICS ACTIVE
Info: LANGEVIN TEMPERATURE   300
Info: LANGEVIN USING BBK INTEGRATOR
Info: LANGEVIN DAMPING COEFFICIENT IS 5 INVERSE PS
Info: LANGEVIN DYNAMICS NOT APPLIED TO HYDROGENS
Info: BERENDSEN PRESSURE COUPLING ACTIVE
Info:     TARGET PRESSURE IS 1 BAR
Info:     COMPRESSIBILITY ESTIMATE IS 4.57e-05 BAR^(-1)
Info:     RELAXATION TIME IS 100 FS
Info:     APPLIED EVERY 2 STEPS
Info:     PRESSURE CONTROL IS GROUP-BASED
Info:       CELL FLUCTUATION IS ISOTROPIC
Info: PARTICLE MESH EWALD (PME) ACTIVE
Info: PME TOLERANCE               1e-06
Info: PME EWALD COEFFICIENT       0.257952
Info: PME INTERPOLATION ORDER     4
Info: PME GRID DIMENSIONS         80 96 80
Info: PME MAXIMUM GRID SPACING    1
Info: FULL ELECTROSTATIC EVALUATION FREQUENCY      2
Info: USING VERLET I (r-RESPA) MTS SCHEME.
Info: C1 SPLITTING OF LONG RANGE ELECTROSTATICS
Info: PLACING ATOMS IN PATCHES BY HYDROGEN GROUPS
Info: RIGID BONDS TO HYDROGEN : WATER
Info:         ERROR TOLERANCE : 1e-05
Info:          MAX ITERATIONS : 100
Info: RIGID WATER USING SETTLE ALGORITHM
Info: RANDOM NUMBER SEED     1503696404
Info: USE HYDROGEN BONDS?    NO
Info: Using AMBER format force field!
Info: AMBER PARM FILE        ../build/complex.top
Info: COORDINATE PDB         ../replicas/rep108/equilibration/eq1.coor
Info: Exclusions in PARM file will be ignored!
Info: SCNB (VDW SCALING)     2
Info: USING ARITHMETIC MEAN TO COMBINE L-J SIGMA PARAMETERS
Info: SUMMARY OF PARAMETERS:
Info: 71 BONDS
Info: 145 ANGLES
Info: 76 DIHEDRAL
Info: 0 IMPROPER
Info: 0 CROSSTERM
Info: 0 VDW
Info: 190 VDW_PAIRS
Info: 0 NBTHOLE_PAIRS
Info: STRUCTURE SUMMARY:
Info: 49394 ATOMS
Info: 49448 BONDS
Info: 8698 ANGLES
Info: 18780 DIHEDRALS
Info: 0 IMPROPERS
Info: 0 CROSSTERMS
Info: 0 EXCLUSIONS
Info: 2336 CONSTRAINTS
Info: 44667 RIGID BONDS
Info: 103515 DEGREES OF FREEDOM
Info: 17225 HYDROGEN GROUPS
Info: 4 ATOMS IN LARGEST HYDROGEN GROUP
Info: 17225 MIGRATION GROUPS
Info: 4 ATOMS IN LARGEST MIGRATION GROUP
Info: TOTAL MASS = 301478 amu
Info: TOTAL CHARGE = 1.00115e-05 e
Info: MASS DENSITY = 0.935846 g/cm^3
Info: ATOM DENSITY = 0.0923345 atoms/A^3
Info: ADDED 70656 IMPLICIT EXCLUSIONS
Info: NONBONDED TABLE R-SQUARED SPACING: 0.0625
Info: NONBONDED TABLE SIZE: 769 POINTS
Info: REMOVING COM VELOCITY 0.00388458 0.0069659 -0.0369827
TCL: Running for 5000 steps
ETITLE: TS BOND ANGLE DIHED IMPRP ELECT VDW BOUNDARY MISC KINETIC TOTAL TEMP POTENTIAL TOTAL3 TEMPAVG PRESSURE GPRESSURE VOLUME PRESSAVG GPRESSAVG
ENERGY: 0 371.9197 1231.3270 2915.9255 0.0000 -213050.1655 29867.5960 0.0000 0.0000 9976.5629 -168686.8345 96.9992 -178663.3974 -168677.2041 96.9992 -2236.2358 -2333.3691 534946.2959 -2236.2358 -2333.3691
ENERGY: 1000 1253.4869 2023.3056 3116.0350 0.0000 -193763.1783 26608.2628 756.0817 0.0000 23991.8554 -136014.1508 233.2657 -160006.0062 -135988.2734 219.3390 -99.0525 -39.7212 520737.3769 -33.4928 -33.1517
ENERGY: 2000 1466.9933 2163.1826 3115.5687 0.0000 -184184.1299 23303.4321 779.8105 0.0000 27867.9820 -125487.1608 270.9522 -153355.1427 -125443.6462 263.6728 16.8312 11.2485 514379.1947 -24.7909 -24.4842
ENERGY: 3000 1566.4167 2222.8840 3147.1773 0.0000 -179350.2437 21683.7390 793.9846 0.0000 29744.1870 -120191.8552 289.1939 -149936.0421 -120144.0509 285.4151 39.7831 7.3717 509960.2850 -28.1873 -28.0668
ENERGY: 4000 1579.2642 2212.5801 3148.5983 0.0000 -177030.5739 20649.2314 772.9189 0.0000 30488.7653 -118179.2158 296.4333 -148667.9811 -118130.5355 293.6269 5.7733 6.7921 505498.9538 -12.9330 -13.0436
ENERGY: 5000 1522.7237 2253.1435 3162.6788 0.0000 -175788.7054 20238.0069 772.9121 0.0000 30657.4353 -117181.8051 298.0732 -147839.2404 -117132.0631 297.7777 -7.0196 16.6648 504927.8903 -15.9745 -15.8546
TCL: Setting parameter constraintScaling to 5.0
TCL: Running for 5000 steps
ETITLE: TS BOND ANGLE DIHED IMPRP ELECT VDW BOUNDARY MISC KINETIC TOTAL TEMP POTENTIAL TOTAL3 TEMPAVG PRESSURE GPRESSURE VOLUME PRESSAVG GPRESSAVG
ENERGY: 5000 1522.7237 2253.1435 3162.6788 0.0000 -175788.7054 20238.0069 386.4560 0.0000 30655.4124 -117570.2840 298.0535 -148225.6964 -117524.4902 298.0535 -100.6126 -68.6481 504927.8903 -100.6126 -68.6481
ENERGY: 6000 1600.3474 2309.2541 3176.2468 0.0000 -176174.9102 20619.6412 627.2931 0.0000 30720.1286 -117121.9991 298.6827 -147842.1277 -117075.1445 298.0400 -78.9702 -8.7831 503030.2297 -14.0411 -14.5041
ENERGY: 7000 1552.8948 2267.1868 3144.1038 0.0000 -175329.3562 19973.6418 642.8739 0.0000 30934.6155 -116814.0395 300.7681 -147748.6551 -116775.2237 299.1721 -24.3086 44.4586 502070.3819 -1.2885 -0.2733
ENERGY: 8000 1580.7377 2266.4967 3164.2527 0.0000 -174797.6099 19922.1509 613.9096 0.0000 30814.1589 -116435.9033 299.5970 -147250.0622 -116398.2773 299.3459 -26.6399 7.8124 503382.8692 8.4566 8.5637
ENERGY: 9000 1604.8924 2283.7596 3190.2045 0.0000 -175637.1987 20273.9165 644.5978 0.0000 31005.6730 -116634.1550 301.4590 -147639.8279 -116575.2078 300.7765 7.0529 42.3467 501769.5735 -14.2535 -14.1204
ENERGY: 10000 1608.2038 2356.7981 3150.6661 0.0000 -175632.8503 20169.8683 661.5265 0.0000 30807.4364 -116878.3509 299.5316 -147685.7874 -116839.0800 300.4043 -27.3838 38.5095 501619.9231 11.0436 10.9508
TCL: Setting parameter constraintScaling to 2.5
TCL: Running for 5000 steps
ETITLE: TS BOND ANGLE DIHED IMPRP ELECT VDW BOUNDARY MISC KINETIC TOTAL TEMP POTENTIAL TOTAL3 TEMPAVG PRESSURE GPRESSURE VOLUME PRESSAVG GPRESSAVG
ENERGY: 10000 1608.2038 2356.7981 3150.6661 0.0000 -175632.8503 20169.8683 330.7633 0.0000 30805.3750 -117211.1756 299.5116 -148016.5506 -117168.7982 299.5116 -53.4724 11.6365 501619.9231 -53.4724 11.6365
ENERGY: 11000 1648.4755 2337.6904 3164.9250 0.0000 -175787.8693 20196.7682 503.8521 0.0000 30390.2237 -117545.9345 295.4752 -147936.1582 -117497.7227 298.4732 -19.5540 109.1619 500783.0528 -3.4134 -2.7583
ENERGY: 12000 1654.2707 2406.8712 3191.2609 0.0000 -175963.4708 20343.4943 492.6843 0.0000 30759.3556 -117115.5338 299.0641 -147874.8894 -117074.7170 298.9317 -59.7376 -32.2679 500847.8387 2.5660 2.8647
ENERGY: 13000 1565.4535 2354.8547 3173.8001 0.0000 -175787.9660 20208.1166 508.3392 0.0000 30906.8320 -117070.5698 300.4980 -147977.4019 -117024.3002 300.5806 -19.1454 6.8478 498109.3736 -11.4023 -10.9891
ENERGY: 14000 1589.0829 2287.8987 3189.2066 0.0000 -175698.0864 20029.1577 536.5006 0.0000 30695.7731 -117370.4667 298.4459 -148066.2398 -117318.8114 298.1527 51.9667 26.3171 498808.1216 6.4972 6.0060
ENERGY: 15000 1608.8449 2391.3939 3197.7024 0.0000 -175591.0808 20104.7383 497.9560 0.0000 30695.3518 -117095.0935 298.4418 -147790.4452 -117049.9433 299.7159 -11.1017 32.1722 500058.0417 8.5282 8.1022
TCL: Setting parameter constraintScaling to 1.25
TCL: Running for 5000 steps
ETITLE: TS BOND ANGLE DIHED IMPRP ELECT VDW BOUNDARY MISC KINETIC TOTAL TEMP POTENTIAL TOTAL3 TEMPAVG PRESSURE GPRESSURE VOLUME PRESSAVG GPRESSAVG
ENERGY: 15000 1608.8449 2391.3939 3197.7024 0.0000 -175591.0808 20104.7383 248.9780 0.0000 30693.2740 -117346.1492 298.4216 -148039.4232 -117302.2106 298.4216 -16.0982 24.0919 500058.0417 -16.0982 24.0919
ENERGY: 16000 1643.7377 2336.2275 3202.5392 0.0000 -175761.3217 20119.1019 393.8932 0.0000 30782.3982 -117283.4240 299.2882 -148065.8222 -117247.5212 299.8512 -109.2962 -47.7449 497304.3153 -14.2231 -13.6143
ENERGY: 17000 1656.0380 2346.6442 3187.3474 0.0000 -175617.0322 20002.3185 420.6005 0.0000 30557.8448 -117446.2387 297.1049 -148004.0835 -117390.4107 298.0177 -17.2069 23.0234 497518.4560 2.3652 2.9096
ENERGY: 18000 1711.7914 2359.9949 3224.9826 0.0000 -175832.6035 20069.7659 421.5689 0.0000 30642.9008 -117401.5989 297.9319 -148044.4997 -117357.5321 298.4892 -40.7553 -12.6378 498277.3783 4.6221 4.1064
ENERGY: 19000 1608.1201 2432.0634 3213.0370 0.0000 -175579.0109 19973.3615 419.4569 0.0000 30793.8381 -117139.1339 299.3994 -147932.9720 -117091.2650 299.6225 -17.8882 9.1632 497586.6180 -1.6712 -1.8147
ENERGY: 20000 1661.9406 2388.4681 3222.0301 0.0000 -175936.3566 20212.4171 417.2802 0.0000 30869.0442 -117165.1762 300.1306 -148034.2204 -117116.4364 299.6254 64.4219 23.1887 497970.7426 1.6220 2.6045
TCL: Setting parameter constraintScaling to 0.625
TCL: Running for 5000 steps
ETITLE: TS BOND ANGLE DIHED IMPRP ELECT VDW BOUNDARY MISC KINETIC TOTAL TEMP POTENTIAL TOTAL3 TEMPAVG PRESSURE GPRESSURE VOLUME PRESSAVG GPRESSAVG
ENERGY: 20000 1661.9406 2388.4681 3222.0301 0.0000 -175936.3566 20212.4171 208.6401 0.0000 30867.0106 -117375.8498 300.1108 -148242.8605 -117333.7251 300.1108 88.4639 53.2614 497970.7426 88.4639 53.2614
ENERGY: 21000 1645.3562 2450.1960 3226.1823 0.0000 -175765.4021 19960.0800 309.1874 0.0000 31171.5550 -117002.8452 303.0718 -148174.4002 -116969.7122 301.4061 -49.7412 -84.2336 497015.0755 -0.8624 -0.9857
ENERGY: 22000 1591.5097 2367.0902 3190.0200 0.0000 -175842.6689 19964.2619 334.6760 0.0000 30997.1172 -117397.9937 301.3758 -148395.1110 -117350.4515 299.7018 -1.4268 -19.4787 497279.7017 5.2641 5.0660
ENERGY: 23000 1575.8421 2324.8535 3203.5306 0.0000 -175586.8880 20105.4635 325.5808 0.0000 30813.1580 -117238.4596 299.5872 -148051.6176 -117184.0271 298.9927 96.8857 60.8641 499120.3899 14.1213 13.6894
ENERGY: 24000 1646.1296 2327.8859 3209.0585 0.0000 -175645.4068 20066.8040 317.8188 0.0000 30873.1795 -117204.5304 300.1708 -148077.7099 -117160.1623 299.8450 24.8483 38.8577 500016.0364 16.9749 16.7991
ENERGY: 25000 1622.9843 2394.3233 3244.1310 0.0000 -175553.5802 19884.4954 315.9387 0.0000 31068.8146 -117022.8930 302.0729 -148091.7076 -116974.9972 299.6039 -43.8629 -28.6791 499164.5159 -3.3713 -3.1174
TCL: Setting parameter constraintScaling to 0.3125
TCL: Running for 5000 steps
ETITLE: TS BOND ANGLE DIHED IMPRP ELECT VDW BOUNDARY MISC KINETIC TOTAL TEMP POTENTIAL TOTAL3 TEMPAVG PRESSURE GPRESSURE VOLUME PRESSAVG GPRESSAVG
ENERGY: 25000 1622.9843 2394.3233 3244.1310 0.0000 -175553.5802 19884.4954 157.9693 0.0000 31066.8187 -117182.8582 302.0535 -148249.6769 -117139.7602 302.0535 -97.0323 -71.6988 499164.5159 -97.0323 -71.6988
ENERGY: 26000 1645.9703 2418.2247 3238.7480 0.0000 -176109.9486 20217.7733 261.4592 0.0000 31020.5256 -117307.2476 301.6034 -148327.7732 -117262.4100 300.1876 51.7217 39.1043 497521.4931 -3.5512 -3.4366
ENERGY: 27000 1618.7981 2448.6957 3223.0026 0.0000 -176275.9569 20348.0576 245.7474 0.0000 30935.5994 -117456.0561 300.7777 -148391.6555 -117401.0729 299.7797 -37.0564 3.9990 495691.7498 -15.6437 -15.2870
ENERGY: 28000 1675.8416 2351.4234 3221.0197 0.0000 -175725.9925 19921.1026 244.0992 0.0000 30687.4548 -117625.0511 298.3651 -148312.5059 -117579.8831 300.7246 -122.7333 -81.5553 497692.3454 9.9439 10.1675
ENERGY: 29000 1634.7776 2401.3894 3156.1492 0.0000 -175807.7743 20062.6231 238.3041 0.0000 30490.8673 -117823.6635 296.4537 -148314.5308 -117764.9869 299.2938 90.9862 106.5038 498629.3402 14.4286 14.3028
ENERGY: 30000 1615.8119 2340.3118 3219.7997 0.0000 -175736.6416 20025.6402 261.2046 0.0000 30800.4349 -117473.4385 299.4635 -148273.8734 -117429.1264 299.1960 -27.5439 -9.5067 498672.4318 2.6578 3.1910
TCL: Setting parameter constraintScaling to 0.15625
TCL: Running for 5000 steps
ETITLE: TS BOND ANGLE DIHED IMPRP ELECT VDW BOUNDARY MISC KINETIC TOTAL TEMP POTENTIAL TOTAL3 TEMPAVG PRESSURE GPRESSURE VOLUME PRESSAVG GPRESSAVG
ENERGY: 30000 1615.8119 2340.3118 3219.7997 0.0000 -175736.6416 20025.6402 130.6023 0.0000 30798.3865 -117606.0892 299.4436 -148404.4757 -117562.0547 299.4436 -89.1152 -71.3929 498672.4318 -89.1152 -71.3929
ENERGY: 31000 1621.3769 2413.5967 3203.1432 0.0000 -176043.2071 20187.6303 190.3040 0.0000 30889.1359 -117538.0201 300.3259 -148427.1560 -117503.5521 299.1740 -26.5259 25.5970 498352.5567 9.0164 8.9504
ENERGY: 32000 1668.9747 2428.8312 3197.7218 0.0000 -175920.3580 20103.0344 195.6676 0.0000 30761.7650 -117564.3633 299.0876 -148326.1283 -117522.3764 299.9553 -192.4649 -109.4169 498511.7221 0.8212 0.3452
ENERGY: 33000 1620.9208 2437.4484 3200.0517 0.0000 -175862.9242 20048.9768 219.0706 0.0000 30888.2058 -117448.2501 300.3169 -148336.4558 -117400.4968 299.6351 29.1842 28.7758 499552.4088 6.8028 6.7790
ENERGY: 34000 1675.9322 2435.8445 3194.7390 0.0000 -175613.4098 19924.1017 212.5619 0.0000 30839.0901 -117331.1404 299.8394 -148170.2305 -117283.6096 300.2561 -147.4195 -74.1690 497845.9161 -12.1316 -11.5219
ENERGY: 35000 1647.0749 2385.3483 3196.2583 0.0000 -175806.5290 19948.3375 205.9826 0.0000 31017.3018 -117406.2257 301.5721 -148423.5275 -117368.7968 299.3710 -126.0289 -4.3520 498650.4793 -2.0062 -2.2133
TCL: Setting parameter constraintScaling to 0.078125
TCL: Running for 5000 steps
ETITLE: TS BOND ANGLE DIHED IMPRP ELECT VDW BOUNDARY MISC KINETIC TOTAL TEMP POTENTIAL TOTAL3 TEMPAVG PRESSURE GPRESSURE VOLUME PRESSAVG GPRESSAVG
ENERGY: 35000 1647.0749 2385.3483 3196.2583 0.0000 -175806.5290 19948.3375 102.9913 0.0000 31015.2559 -117511.2629 301.5522 -148526.5188 -117468.2937 301.5522 -162.9301 -36.4144 498650.4793 -162.9301 -36.4144
ENERGY: 36000 1634.0265 2457.5648 3190.5398 0.0000 -175652.3726 19987.5346 131.9691 0.0000 30770.4057 -117480.3321 299.1716 -148250.7378 -117430.1376 299.2543 66.1601 52.2949 498359.8257 -1.9887 -2.2049
ENERGY: 37000 1662.1576 2426.0680 3203.0051 0.0000 -175033.5840 19688.7717 152.8760 0.0000 30892.1194 -117008.5862 300.3550 -147900.7056 -116967.4355 300.8494 -31.9366 -63.8473 497562.5769 4.7122 4.5212
ENERGY: 38000 1636.4562 2406.5089 3201.4662 0.0000 -175680.0663 19993.8877 148.6576 0.0000 30953.3364 -117339.7534 300.9502 -148293.0898 -117302.3827 300.9379 -33.1151 -0.9993 497571.8026 3.7734 3.9715
ENERGY: 39000 1633.3797 2380.6954 3223.2738 0.0000 -175660.4524 19920.8316 174.7485 0.0000 30828.5261 -117498.9974 299.7367 -148327.5235 -117445.8087 299.7841 5.4138 25.2815 497666.2475 6.2602 6.4018
ENERGY: 40000 1617.5880 2345.8806 3193.1609 0.0000 -175458.2973 19844.9990 167.8433 0.0000 30940.7393 -117348.0861 300.8277 -148288.8254 -117296.4494 300.4190 -53.0728 -39.4105 498808.4855 3.9574 4.2834
TCL: Setting parameter constraintScaling to 0.0390625
TCL: Running for 5000 steps
ETITLE: TS BOND ANGLE DIHED IMPRP ELECT VDW BOUNDARY MISC KINETIC TOTAL TEMP POTENTIAL TOTAL3 TEMPAVG PRESSURE GPRESSURE VOLUME PRESSAVG GPRESSAVG
ENERGY: 40000 1617.5880 2345.8806 3193.1609 0.0000 -175458.2973 19844.9990 83.9217 0.0000 30938.6950 -117434.0520 300.8078 -148372.7470 -117389.4879 300.8078 -52.0858 -48.2784 498808.4855 -52.0858 -48.2784
ENERGY: 41000 1643.3720 2457.1553 3207.8180 0.0000 -176190.6665 20310.0914 112.5273 0.0000 30766.9696 -117692.7330 299.1382 -148459.7026 -117635.2183 299.9061 30.4143 49.1358 499046.7458 10.1879 10.5022
ENERGY: 42000 1600.7373 2340.9671 3205.1621 0.0000 -176438.5072 20235.6875 114.4711 0.0000 30742.1206 -118199.3615 298.8966 -148941.4821 -118161.4015 298.1936 80.1474 23.6413 496398.2465 -8.3403 -8.6613
ENERGY: 43000 1679.1879 2397.2274 3226.0665 0.0000 -176311.2371 20189.1427 127.6679 0.0000 30651.1403 -118040.8044 298.0120 -148691.9447 -117988.6647 298.6115 -122.8517 -5.9912 497375.5514 -2.0185 -2.2915
ENERGY: 44000 1673.2943 2356.0419 3242.2823 0.0000 -176330.9759 20239.4602 126.9838 0.0000 30809.4430 -117883.4704 299.5511 -148692.9135 -117837.7630 298.6302 -71.2864 -7.1819 497293.0753 -3.2245 -3.3085
ENERGY: 45000 1639.2714 2402.9507 3223.9938 0.0000 -176181.3348 20033.3294 126.2649 0.0000 30714.4675 -118041.0571 298.6277 -148755.5246 -117994.1210 297.6804 -32.0270 -17.8198 495940.7517 3.7194 3.3665
TCL: Setting parameter constraintScaling to 0.01953125
TCL: Running for 5000 steps
ETITLE: TS BOND ANGLE DIHED IMPRP ELECT VDW BOUNDARY MISC KINETIC TOTAL TEMP POTENTIAL TOTAL3 TEMPAVG PRESSURE GPRESSURE VOLUME PRESSAVG GPRESSAVG
ENERGY: 45000 1639.2714 2402.9507 3223.9938 0.0000 -176181.3348 20033.3294 63.1325 0.0000 30712.4425 -118106.2146 298.6080 -148818.6571 -118066.4831 298.6080 -33.6607 -25.9908 495940.7517 -33.6607 -25.9908
ENERGY: 46000 1652.4931 2367.9014 3205.4128 0.0000 -176176.4354 20306.7547 76.2764 0.0000 30753.1901 -117814.4071 299.0042 -148567.5971 -117780.0378 299.0909 97.2236 59.2420 497143.2098 1.6366 1.8485
ENERGY: 47000 1635.3591 2373.8116 3195.4944 0.0000 -176093.4663 20249.0012 86.1127 0.0000 30706.7305 -117846.9566 298.5525 -148553.6872 -117802.3679 299.7352 -98.8910 36.9945 496943.2644 2.0569 2.1252
ENERGY: 48000 1685.9881 2438.4533 3183.2078 0.0000 -175805.9297 20033.8633 85.2110 0.0000 31006.1110 -117373.0950 301.4633 -148379.2060 -117332.5963 300.2028 10.1831 71.8920 496763.6359 -5.9480 -5.6706
ENERGY: 49000 1637.5180 2430.9721 3222.5141 0.0000 -175760.6242 19976.5210 84.0394 0.0000 30943.6634 -117465.3962 300.8561 -148409.0595 -117408.9660 299.8992 76.1507 67.4632 497984.0763 12.5353 12.8209
ENERGY: 50000 1595.4582 2410.2660 3201.0961 0.0000 -175616.0272 19930.7537 88.7369 0.0000 30795.5606 -117594.1557 299.4161 -148389.7163 -117552.7006 300.2755 16.2658 7.1586 497773.4974 9.9746 9.6733
TCL: Setting parameter constraintScaling to 0
TCL: Running for 5000 steps
ETITLE: TS BOND ANGLE DIHED IMPRP ELECT VDW BOUNDARY MISC KINETIC TOTAL TEMP POTENTIAL TOTAL3 TEMPAVG PRESSURE GPRESSURE VOLUME PRESSAVG GPRESSAVG
ENERGY: 50000 1595.4582 2410.2660 3201.0961 0.0000 -175616.0272 19930.7537 0.0000 0.0000 30793.5210 -117684.9322 299.3963 -148478.4533 -117641.2475 299.3963 -9.5840 -19.1376 497773.4974 -9.5840 -19.1376
ENERGY: 51000 1612.1852 2373.1480 3200.7381 0.0000 -175724.7511 19910.2320 0.0000 0.0000 30809.3428 -117819.1049 299.5501 -148628.4478 -117784.1013 300.0398 8.2809 -14.4710 496715.3704 10.5230 10.7310
ENERGY: 52000 1575.4271 2374.4208 3230.6066 0.0000 -176379.9094 20143.2168 0.0000 0.0000 30822.6933 -118233.5449 299.6799 -149056.2381 -118190.0152 299.2588 -12.5952 26.0804 496850.4434 0.5108 -0.1400
ENERGY: 53000 1595.1544 2429.9187 3190.2431 0.0000 -176245.9784 20074.9855 0.0000 0.0000 30750.1852 -118205.4915 298.9750 -148955.6767 -118161.9661 299.5236 15.5694 -13.6711 495598.6599 -0.1120 -0.4819
ENERGY: 54000 1615.0108 2413.6299 3171.8158 0.0000 -176443.6678 20086.0762 0.0000 0.0000 30815.4440 -118341.6910 299.6095 -149157.1350 -118295.3002 297.7767 -49.7770 -61.9190 496149.3195 2.9427 3.0166
ENERGY: 55000 1610.4623 2435.7227 3210.1371 0.0000 -176184.7763 20171.8105 0.0000 0.0000 30711.0448 -118045.5988 298.5944 -148756.6436 -118002.8613 298.9995 -59.9708 52.2820 497331.5225 8.3495 8.1791
