Info: SIMULATION PARAMETERS:
Info: TIMESTEP               2
Info: NUMBER OF STEPS        0
Info: STEPS PER CYCLE        10
Info: PERIODIC CELL BASIS 1  72.449 0 0
Info: PERIODIC CELL BASIS 2  0 93.247 0
Info: PERIODIC CELL BASIS 3  0 0 79.185
Info: PERIODIC CELL CENTER   -0.248 -0.156 -0.047
Info: WRAPPING WATERS AROUND PERIODIC BOUNDARIES ON OUTPUT.
Info: WRAPPING ALL CLUSTERS AROUND PERIODIC BOUNDARIES ON OUTPUT.
Info: FIRST LDB TIMESTEP     50
Info: LAST LDB TIMESTEP     -1
Info: HOM BACKGROUND SCALING 1
Info: PME BACKGROUND SCALING 1
Info: MIN ATOMS PER PATCH    40
Info: INITIAL TEMPERATURE    0
Info: CENTER OF MASS MOVING INITIALLY? NO
Info: DIELECTRIC             1
Info: EXCLUDE                SCALED ONE-FOUR
Info: 1-4 ELECTROSTATICS SCALED BY 0.833333
Info: MODIFIED 1-4 VDW PARAMETERS WILL BE USED
Info: NO DCD TRAJECTORY OUTPUT
Info: NO EXTENDED SYSTEM TRAJECTORY OUTPUT
Info: NO VELOCITY DCD OUTPUT
Info: NO FORCE DCD OUTPUT
Info: OUTPUT FILENAME        ../replicas/rep12/equilibration/eq0
Info: NO RESTART FILE
Info: SWITCHING ACTIVE
Info: SWITCHING ON           10
Info: SWITCHING OFF          12
Info: PAIRLIST DISTANCE      13.5
Info: PAIRLIST SHRINK RATE   0.01
Info: PAIRLIST GROW RATE     0.01
Info: PAIRLIST TRIGGER       0.3
Info: PAIRLISTS PER CYCLE    2
Info: PAIRLISTS ENABLED
Info: MARGIN                 0
Info: HYDROGEN GROUP CUTOFF  2.5
Info: PATCH DIMENSION        16
Info: ENERGY OUTPUT STEPS    500
Info: CROSSTERM ENERGY INCLUDED IN DIHEDRAL
Info: TIMING OUTPUT STEPS    5000
Info: PRESSURE OUTPUT STEPS  500
Info: HARMONIC CONSTRAINTS ACTIVE
Info: HARMONIC CONS EXP      2
Info: HARMONIC CONS SCALING  10
Info: CONJUGATE GRADIENT MINIMIZATION ACTIVE
Info: LINE MINIMIZATION GOAL = 0.001
Info: BABY STEP SIZE = 0.01
Info: TINY STEP SIZE = 1e-06
Info: PARTICLE MESH EWALD (PME) ACTIVE
Info: PME TOLERANCE               1e-06
Info: PME EWALD COEFFICIENT       0.257952
Info: PME INTERPOLATION ORDER     4
Info: PME GRID DIMENSIONS         80 96 80
Info: PME MAXIMUM GRID SPACING    1
Info: FULL ELECTROSTATIC EVALUATION FREQUENCY      2
Info: USING VERLET I (r-RESPA) MTS SCHEME.
Info: C1 SPLITTING OF LONG RANGE ELECTROSTATICS
Info: PLACING ATOMS IN PATCHES BY HYDROGEN GROUPS
Info: RIGID BONDS TO HYDROGEN : ALL
Info:         ERROR TOLERANCE : 1e-05
Info:          MAX ITERATIONS : 100
Info: RIGID WATER USING SETTLE ALGORITHM
Info: RANDOM NUMBER SEED     1503248884
Info: USE HYDROGEN BONDS?    NO
Info: Using AMBER format force field!
Info: AMBER PARM FILE        ../build/complex.top
Info: COORDINATE PDB         ../build/complex.pdb
Info: Exclusions in PARM file will be ignored!
Info: SCNB (VDW SCALING)     2
Info: USING ARITHMETIC MEAN TO COMBINE L-J SIGMA PARAMETERS
Info: SUMMARY OF PARAMETERS:
Info: 71 BONDS
Info: 145 ANGLES
Info:   145 HARMONIC
Info:   0 COSINE-BASED
Info: 76 DIHEDRAL
Info: 0 IMPROPER
Info: 0 CROSSTERM
Info: 0 VDW
Info: 190 VDW_PAIRS
Info: 0 NBTHOLE_PAIRS
Info: STRUCTURE SUMMARY:
Info: 49394 ATOMS
Info: 49448 BONDS
Info: 8698 ANGLES
Info: 18780 DIHEDRALS
Info: 0 IMPROPERS
Info: 0 CROSSTERMS
Info: 0 EXCLUSIONS
Info: 2336 CONSTRAINTS
Info: 47058 RIGID BONDS
Info: 101124 DEGREES OF FREEDOM
Info: 17225 HYDROGEN GROUPS
Info: 4 ATOMS IN LARGEST HYDROGEN GROUP
Info: 17225 MIGRATION GROUPS
Info: 4 ATOMS IN LARGEST MIGRATION GROUP
Info: TOTAL MASS = 301478 amu
Info: TOTAL CHARGE = 1.00115e-05 e
Info: MASS DENSITY = 0.935846 g/cm^3
Info: ATOM DENSITY = 0.0923345 atoms/A^3
Info: ADDED 70656 IMPLICIT EXCLUSIONS
Info: NONBONDED TABLE R-SQUARED SPACING: 0.0625
Info: NONBONDED TABLE SIZE: 769 POINTS
Info: REMOVING COM VELOCITY 0 0 0
TCL: Minimizing for 100 steps
ETITLE: TS BOND ANGLE DIHED IMPRP ELECT VDW BOUNDARY MISC KINETIC TOTAL TEMP POTENTIAL TOTAL3 TEMPAVG PRESSURE GPRESSURE VOLUME PRESSAVG GPRESSAVG
ENERGY: 0 155.4176 1012.2698 2855.7272 0.0000 -154496.7910 207729.2052 0.0468 0.0000 0.0000 57255.8756 0.0000 57255.8756 57255.8756 0.0000 116350.2532 86546.1670 534946.2959 116350.2532 86546.1670
ENERGY: 20 304.7551 935.7912 2893.4663 0.0000 -158672.9405 17936.6594 143.9454 0.0000 0.0000 -136458.3232 0.0000 -136458.3232 -136458.3232 0.0000 16523.9387 -239.4558 534946.2959 16523.9387 -239.4558
ENERGY: 40 198.7458 799.5729 2896.9273 0.0000 -162811.4536 16417.9535 221.3030 0.0000 0.0000 -142276.9510 0.0000 -142276.9510 -142276.9510 0.0000 15011.2701 -2135.4700 534946.2959 15011.2701 -2135.4700
ENERGY: 60 130.5281 715.3440 2898.2166 0.0000 -167496.1591 15446.7536 315.2797 0.0000 0.0000 -147990.0372 0.0000 -147990.0372 -147990.0372 0.0000 13793.8832 -3799.3993 534946.2959 13793.8832 -3799.3993
ENERGY: 80 431.2725 765.6306 2904.3787 0.0000 -169937.5351 15121.1518 372.0123 0.0000 0.0000 -150343.0892 0.0000 -150343.0892 -150343.0892 0.0000 13270.3292 -4577.2470 534946.2959 13270.3292 -4577.2470
ENERGY: 100 119.3848 710.0600 2905.2591 0.0000 -171259.7120 14991.7870 387.3613 0.0000 0.0000 -152145.8599 0.0000 -152145.8599 -152145.8599 0.0000 13056.2656 -4908.1720 534946.2959 13056.2656 -4908.1720
TCL: Setting parameter constraintScaling to 5.0
TCL: Minimizing for 100 steps
ETITLE: TS BOND ANGLE DIHED IMPRP ELECT VDW BOUNDARY MISC KINETIC TOTAL TEMP POTENTIAL TOTAL3 TEMPAVG PRESSURE GPRESSURE VOLUME PRESSAVG GPRESSAVG
ENERGY: 100 119.3848 710.0600 2905.2591 0.0000 -171259.7120 14991.7870 193.6807 0.0000 0.0000 -152339.5405 0.0000 -152339.5405 -152339.5405 0.0000 13672.7718 -23021.8183 534946.2959 13672.7718 -23021.8183
ENERGY: 120 108.8823 687.5837 2912.9266 0.0000 -172865.8802 14798.2709 281.1914 0.0000 0.0000 -154077.0253 0.0000 -154077.0253 -154077.0253 0.0000 13218.2557 -4906.0155 534946.2959 13218.2557 -4906.0155
ENERGY: 140 309.4211 708.8654 2913.8025 0.0000 -174236.6953 14731.4801 326.6402 0.0000 0.0000 -155246.4859 0.0000 -155246.4859 -155246.4859 0.0000 12971.5247 -5303.2483 534946.2959 12971.5247 -5303.2483
ENERGY: 160 265.2824 683.1282 2923.1768 0.0000 -176275.5492 14757.3481 382.8975 0.0000 0.0000 -157263.7160 0.0000 -157263.7160 -157263.7160 0.0000 12740.9324 -5736.7489 534946.2959 12740.9324 -5736.7489
ENERGY: 180 268.8634 744.0964 2928.5664 0.0000 -178995.5215 15023.5329 473.3084 0.0000 0.0000 -159557.1540 0.0000 -159557.1540 -159557.1540 0.0000 12521.5989 -6217.5470 534946.2959 12521.5989 -6217.5470
ENERGY: 200 238.9323 694.0873 2941.3649 0.0000 -181556.4184 15587.0890 546.2691 0.0000 0.0000 -161548.6758 0.0000 -161548.6758 -161548.6758 0.0000 12582.6500 -6425.1057 534946.2959 12582.6500 -6425.1057
TCL: Setting parameter constraintScaling to 2.5
TCL: Minimizing for 100 steps
ETITLE: TS BOND ANGLE DIHED IMPRP ELECT VDW BOUNDARY MISC KINETIC TOTAL TEMP POTENTIAL TOTAL3 TEMPAVG PRESSURE GPRESSURE VOLUME PRESSAVG GPRESSAVG
ENERGY: 200 238.9323 694.0873 2941.3649 0.0000 -181556.4184 15587.0890 273.1345 0.0000 0.0000 -161821.8103 0.0000 -161821.8103 -161821.8103 0.0000 13229.5607 -25655.9237 534946.2959 13229.5607 -25655.9237
ENERGY: 220 251.1251 679.9302 2933.0266 0.0000 -182083.0056 15470.9503 338.5773 0.0000 0.0000 -162409.3960 0.0000 -162409.3960 -162409.3960 0.0000 12967.9566 -6095.2621 534946.2959 12967.9566 -6095.2621
ENERGY: 240 139.2981 665.8024 2928.6028 0.0000 -182462.6224 15494.2589 343.5871 0.0000 0.0000 -162891.0730 0.0000 -162891.0730 -162891.0730 0.0000 13034.3292 -6108.1557 534946.2959 13034.3292 -6108.1557
ENERGY: 260 164.5520 683.7527 2921.6096 0.0000 -183940.9562 15800.1401 385.4723 0.0000 0.0000 -163985.4296 0.0000 -163985.4296 -163985.4296 0.0000 13031.8083 -6246.6190 534946.2959 13031.8083 -6246.6190
ENERGY: 280 169.0031 700.8752 2917.6008 0.0000 -185422.5547 16228.7241 454.8393 0.0000 0.0000 -164951.5122 0.0000 -164951.5122 -164951.5122 0.0000 13143.4210 -6338.6287 534946.2959 13143.4210 -6338.6287
ENERGY: 300 126.6747 639.5369 2916.2522 0.0000 -186094.5549 16445.7340 481.3717 0.0000 0.0000 -165484.9854 0.0000 -165484.9854 -165484.9854 0.0000 13207.7079 -6342.7403 534946.2959 13207.7079 -6342.7403
TCL: Setting parameter constraintScaling to 1.25
TCL: Minimizing for 100 steps
ETITLE: TS BOND ANGLE DIHED IMPRP ELECT VDW BOUNDARY MISC KINETIC TOTAL TEMP POTENTIAL TOTAL3 TEMPAVG PRESSURE GPRESSURE VOLUME PRESSAVG GPRESSAVG
ENERGY: 300 126.6747 639.5369 2916.2522 0.0000 -186094.5549 16445.7340 240.6859 0.0000 0.0000 -165725.6713 0.0000 -165725.6713 -165725.6713 0.0000 13656.0530 -26352.7159 534946.2959 13656.0530 -26352.7159
ENERGY: 320 151.9540 633.4877 2910.3668 0.0000 -186874.3824 16639.9899 285.1695 0.0000 0.0000 -166253.4144 0.0000 -166253.4144 -166253.4144 0.0000 13627.8878 -5995.3308 534946.2959 13627.8878 -5995.3308
ENERGY: 340 145.9807 627.8262 2911.6654 0.0000 -187699.4296 16920.1437 307.3614 0.0000 0.0000 -166786.4522 0.0000 -166786.4522 -166786.4522 0.0000 13657.8117 -6027.3355 534946.2959 13657.8117 -6027.3355
ENERGY: 360 181.4340 648.5653 2902.1497 0.0000 -189615.9444 17616.1222 372.4088 0.0000 0.0000 -167895.2645 0.0000 -167895.2645 -167895.2645 0.0000 13989.5460 -5953.6059 534946.2959 13989.5460 -5953.6059
ENERGY: 380 163.5779 655.1745 2898.7734 0.0000 -190655.9941 18022.0831 406.3399 0.0000 0.0000 -168510.0453 0.0000 -168510.0453 -168510.0453 0.0000 14144.5157 -5926.3207 534946.2959 14144.5157 -5926.3207
ENERGY: 400 204.8931 668.3516 2903.1322 0.0000 -191064.1571 18131.9507 402.2769 0.0000 0.0000 -168753.5525 0.0000 -168753.5525 -168753.5525 0.0000 14159.1813 -5938.4201 534946.2959 14159.1813 -5938.4201
TCL: Setting parameter constraintScaling to 0.625
TCL: Minimizing for 100 steps
ETITLE: TS BOND ANGLE DIHED IMPRP ELECT VDW BOUNDARY MISC KINETIC TOTAL TEMP POTENTIAL TOTAL3 TEMPAVG PRESSURE GPRESSURE VOLUME PRESSAVG GPRESSAVG
ENERGY: 400 204.8931 668.3516 2903.1322 0.0000 -191064.1571 18131.9507 201.1385 0.0000 0.0000 -168954.6910 0.0000 -168954.6910 -168954.6910 0.0000 14461.3907 -26717.7632 534946.2959 14461.3907 -26717.7632
ENERGY: 420 152.8811 637.7715 2895.9046 0.0000 -191297.9684 18196.5477 212.9872 0.0000 0.0000 -169201.8765 0.0000 -169201.8765 -169201.8765 0.0000 14462.9623 -5663.0907 534946.2959 14462.9623 -5663.0907
ENERGY: 440 174.9289 642.1820 2889.8240 0.0000 -191803.5971 18350.9980 236.2319 0.0000 0.0000 -169509.4324 0.0000 -169509.4324 -169509.4324 0.0000 14503.9448 -5683.3391 534946.2959 14503.9448 -5683.3391
ENERGY: 460 141.5260 637.3089 2884.9104 0.0000 -192466.4499 18577.8777 260.7497 0.0000 0.0000 -169964.0772 0.0000 -169964.0772 -169964.0772 0.0000 14568.0548 -5688.0785 534946.2959 14568.0548 -5688.0785
ENERGY: 480 162.4320 644.5915 2883.8946 0.0000 -193318.1731 18895.8141 273.8672 0.0000 0.0000 -170457.5737 0.0000 -170457.5737 -170457.5737 0.0000 14711.5373 -5641.4466 534946.2959 14711.5373 -5641.4466
ENERGY: 500 193.7092 654.7336 2880.9833 0.0000 -194854.7533 19528.9815 306.7723 0.0000 0.0000 -171289.5734 0.0000 -171289.5734 -171289.5734 0.0000 15008.8444 -5517.8081 534946.2959 15008.8444 -5517.8081
TCL: Setting parameter constraintScaling to 0.3125
TCL: Minimizing for 100 steps
ETITLE: TS BOND ANGLE DIHED IMPRP ELECT VDW BOUNDARY MISC KINETIC TOTAL TEMP POTENTIAL TOTAL3 TEMPAVG PRESSURE GPRESSURE VOLUME PRESSAVG GPRESSAVG
ENERGY: 500 193.7092 654.7336 2880.9833 0.0000 -194854.7533 19528.9815 153.3861 0.0000 0.0000 -171442.9595 0.0000 -171442.9595 -171442.9595 0.0000 15206.3272 -26859.8240 534946.2959 15206.3272 -26859.8240
ENERGY: 520 153.8427 641.0415 2873.8383 0.0000 -195204.7327 19629.9608 170.1259 0.0000 0.0000 -171735.9235 0.0000 -171735.9235 -171735.9235 0.0000 15200.5341 -5361.5083 534946.2959 15200.5341 -5361.5083
ENERGY: 540 165.2992 660.0191 2868.4267 0.0000 -196222.1329 19994.1147 205.6302 0.0000 0.0000 -172328.6430 0.0000 -172328.6430 -172328.6430 0.0000 15284.0283 -5383.0557 534946.2959 15284.0283 -5383.0557
ENERGY: 560 159.5013 657.4955 2873.7578 0.0000 -196329.3115 20025.1713 204.3846 0.0000 0.0000 -172409.0010 0.0000 -172409.0010 -172409.0010 0.0000 15330.6721 -5360.9321 534946.2959 15330.6721 -5360.9321
ENERGY: 580 177.2923 663.7669 2883.2641 0.0000 -197181.6822 20388.9358 201.3920 0.0000 0.0000 -172867.0311 0.0000 -172867.0311 -172867.0311 0.0000 15563.1550 -5226.9097 534946.2959 15563.1550 -5226.9097
ENERGY: 600 178.4045 662.8683 2873.5013 0.0000 -198962.6778 21198.4154 233.2988 0.0000 0.0000 -173816.1895 0.0000 -173816.1895 -173816.1895 0.0000 15939.1691 -5051.6025 534946.2959 15939.1691 -5051.6025
TCL: Setting parameter constraintScaling to 0.15625
TCL: Minimizing for 100 steps
ETITLE: TS BOND ANGLE DIHED IMPRP ELECT VDW BOUNDARY MISC KINETIC TOTAL TEMP POTENTIAL TOTAL3 TEMPAVG PRESSURE GPRESSURE VOLUME PRESSAVG GPRESSAVG
ENERGY: 600 178.4045 662.8683 2873.5013 0.0000 -198962.6778 21198.4154 116.6494 0.0000 0.0000 -173932.8389 0.0000 -173932.8389 -173932.8389 0.0000 16068.3923 -26983.4201 534946.2959 16068.3923 -26983.4201
ENERGY: 620 157.9622 636.8097 2854.5077 0.0000 -199183.9330 21195.2487 126.1993 0.0000 0.0000 -174213.2055 0.0000 -174213.2055 -174213.2055 0.0000 16022.9975 -4998.3790 534946.2959 16022.9975 -4998.3790
ENERGY: 640 164.5578 678.5804 2852.0169 0.0000 -199528.5584 21285.7624 138.5682 0.0000 0.0000 -174409.0727 0.0000 -174409.0727 -174409.0727 0.0000 16028.8300 -5037.2415 534946.2959 16028.8300 -5037.2415
ENERGY: 660 170.0580 654.2941 2848.4723 0.0000 -199711.0006 21336.9407 143.0150 0.0000 0.0000 -174558.2206 0.0000 -174558.2206 -174558.2206 0.0000 16007.4468 -5065.8709 534946.2959 16007.4468 -5065.8709
ENERGY: 680 160.5934 661.8550 2854.0676 0.0000 -199991.9676 21439.2721 141.5651 0.0000 0.0000 -174734.6145 0.0000 -174734.6145 -174734.6145 0.0000 16128.3674 -4997.3072 534946.2959 16128.3674 -4997.3072
ENERGY: 700 160.7837 666.3293 2859.0176 0.0000 -200474.9216 21646.5144 143.2965 0.0000 0.0000 -174998.9803 0.0000 -174998.9803 -174998.9803 0.0000 16244.9906 -4929.0734 534946.2959 16244.9906 -4929.0734
TCL: Setting parameter constraintScaling to 0.078125
TCL: Minimizing for 100 steps
ETITLE: TS BOND ANGLE DIHED IMPRP ELECT VDW BOUNDARY MISC KINETIC TOTAL TEMP POTENTIAL TOTAL3 TEMPAVG PRESSURE GPRESSURE VOLUME PRESSAVG GPRESSAVG
ENERGY: 700 160.7837 666.3293 2859.0176 0.0000 -200474.9216 21646.5144 71.6482 0.0000 0.0000 -175070.6285 0.0000 -175070.6285 -175070.6285 0.0000 16316.9023 -27092.8965 534946.2959 16316.9023 -27092.8965
ENERGY: 720 160.5780 660.5640 2846.1354 0.0000 -200652.0942 21669.0102 76.0849 0.0000 0.0000 -175239.7217 0.0000 -175239.7217 -175239.7217 0.0000 16295.4597 -4899.0738 534946.2959 16295.4597 -4899.0738
ENERGY: 740 169.0205 657.9780 2837.9917 0.0000 -200902.4484 21753.7552 81.2676 0.0000 0.0000 -175402.4354 0.0000 -175402.4354 -175402.4354 0.0000 16285.0621 -4932.9975 534946.2959 16285.0621 -4932.9975
ENERGY: 760 251.6695 686.4646 2838.1805 0.0000 -201789.5882 22090.6408 92.7206 0.0000 0.0000 -175829.9122 0.0000 -175829.9122 -175829.9122 0.0000 16401.4963 -4915.7825 534946.2959 16401.4963 -4915.7825
ENERGY: 780 164.0871 663.4215 2831.8139 0.0000 -202044.0369 22186.4125 92.1891 0.0000 0.0000 -176106.1128 0.0000 -176106.1128 -176106.1128 0.0000 16512.2052 -4843.7806 534946.2959 16512.2052 -4843.7806
ENERGY: 800 161.6741 651.3038 2833.4612 0.0000 -202326.6214 22314.1851 91.9178 0.0000 0.0000 -176274.0795 0.0000 -176274.0795 -176274.0795 0.0000 16609.0858 -4788.7775 534946.2959 16609.0858 -4788.7775
TCL: Setting parameter constraintScaling to 0.0390625
TCL: Minimizing for 100 steps
ETITLE: TS BOND ANGLE DIHED IMPRP ELECT VDW BOUNDARY MISC KINETIC TOTAL TEMP POTENTIAL TOTAL3 TEMPAVG PRESSURE GPRESSURE VOLUME PRESSAVG GPRESSAVG
ENERGY: 800 161.6741 651.3038 2833.4612 0.0000 -202326.6214 22314.1851 45.9589 0.0000 0.0000 -176320.0383 0.0000 -176320.0383 -176320.0383 0.0000 16650.4210 -27198.4102 534946.2959 16650.4210 -27198.4102
ENERGY: 820 328.1359 706.4247 2830.6430 0.0000 -202663.4743 22428.6518 49.3812 0.0000 0.0000 -176320.2377 0.0000 -176320.2377 -176320.2377 0.0000 16640.6201 -4796.0403 534946.2959 16640.6201 -4796.0403
ENERGY: 840 168.3399 661.6269 2825.8367 0.0000 -202861.7419 22510.7944 50.9128 0.0000 0.0000 -176644.2312 0.0000 -176644.2312 -176644.2312 0.0000 16686.5653 -4755.7340 534946.2959 16686.5653 -4755.7340
ENERGY: 860 174.6038 649.4486 2825.4826 0.0000 -203102.4723 22606.5352 50.8128 0.0000 0.0000 -176795.5894 0.0000 -176795.5894 -176795.5894 0.0000 16760.2778 -4714.8681 534946.2959 16760.2778 -4714.8681
ENERGY: 880 160.9827 650.6723 2824.2404 0.0000 -203869.2157 22942.5603 54.3600 0.0000 0.0000 -177236.4000 0.0000 -177236.4000 -177236.4000 0.0000 16947.9610 -4625.2913 534946.2959 16947.9610 -4625.2913
ENERGY: 900 174.4648 657.8137 2815.1205 0.0000 -204747.4164 23372.8996 60.0073 0.0000 0.0000 -177667.1105 0.0000 -177667.1105 -177667.1105 0.0000 17159.1289 -4514.0316 534946.2959 17159.1289 -4514.0316
TCL: Setting parameter constraintScaling to 0.01953125
TCL: Minimizing for 100 steps
ETITLE: TS BOND ANGLE DIHED IMPRP ELECT VDW BOUNDARY MISC KINETIC TOTAL TEMP POTENTIAL TOTAL3 TEMPAVG PRESSURE GPRESSURE VOLUME PRESSAVG GPRESSAVG
ENERGY: 900 174.4648 657.8137 2815.1205 0.0000 -204747.4164 23372.8996 30.0037 0.0000 0.0000 -177697.1142 0.0000 -177697.1142 -177697.1142 0.0000 17183.5939 -27242.6677 534946.2959 17183.5939 -27242.6677
ENERGY: 920 161.9238 649.7440 2813.6669 0.0000 -204831.1868 23393.2585 30.3694 0.0000 0.0000 -177782.2243 0.0000 -177782.2243 -177782.2243 0.0000 17190.9147 -4493.6820 534946.2959 17190.9147 -4493.6820
ENERGY: 940 162.5873 651.1229 2812.2102 0.0000 -205035.8967 23470.8442 31.1045 0.0000 0.0000 -177908.0276 0.0000 -177908.0276 -177908.0276 0.0000 17225.3520 -4481.7867 534946.2959 17225.3520 -4481.7867
ENERGY: 960 172.7986 655.6708 2811.7713 0.0000 -205234.5987 23548.1183 31.7266 0.0000 0.0000 -178014.5130 0.0000 -178014.5130 -178014.5130 0.0000 17258.9854 -4473.0073 534946.2959 17258.9854 -4473.0073
ENERGY: 980 274.6502 692.9914 2809.7796 0.0000 -205948.9049 23860.7454 34.0602 0.0000 0.0000 -178276.6781 0.0000 -178276.6781 -178276.6781 0.0000 17409.3110 -4415.4308 534946.2959 17409.3110 -4415.4308
ENERGY: 1000 177.8798 668.2282 2806.5687 0.0000 -206427.0948 24098.1010 35.9050 0.0000 0.0000 -178640.4122 0.0000 -178640.4122 -178640.4122 0.0000 17540.0206 -4324.7209 534946.2959 17540.0206 -4324.7209
TCL: Setting parameter constraintScaling to 0
TCL: Minimizing for 5000 steps
ETITLE: TS BOND ANGLE DIHED IMPRP ELECT VDW BOUNDARY MISC KINETIC TOTAL TEMP POTENTIAL TOTAL3 TEMPAVG PRESSURE GPRESSURE VOLUME PRESSAVG GPRESSAVG
ENERGY: 1000 177.8798 668.2282 2806.5687 0.0000 -206427.0948 24098.1010 0.0000 0.0000 0.0000 -178676.3172 0.0000 -178676.3172 -178676.3172 0.0000 17567.4774 -27254.8065 534946.2959 17567.4774 -27254.8065
ENERGY: 2000 222.1812 684.5808 2801.8773 0.0000 -214715.0448 27760.3418 0.0000 0.0000 0.0000 -183246.0638 0.0000 -183246.0638 -183246.0638 0.0000 19505.6837 -3280.2965 534946.2959 19505.6837 -3280.2965
ENERGY: 3000 166.4290 663.1192 2796.2221 0.0000 -217547.0993 28947.4956 0.0000 0.0000 0.0000 -184973.8334 0.0000 -184973.8334 -184973.8334 0.0000 20147.6024 -2947.7211 534946.2959 20147.6024 -2947.7211
ENERGY: 4000 165.5029 662.2116 2787.4776 0.0000 -218869.3557 29434.3664 0.0000 0.0000 0.0000 -185819.7973 0.0000 -185819.7973 -185819.7973 0.0000 20402.6120 -2822.6351 534946.2959 20402.6120 -2822.6351
ENERGY: 5000 383.7738 724.8002 2791.8699 0.0000 -219563.3410 29749.0502 0.0000 0.0000 0.0000 -185913.8470 0.0000 -185913.8470 -185913.8470 0.0000 20539.3152 -2770.8518 534946.2959 20539.3152 -2770.8518
ENERGY: 6000 166.3492 665.2484 2786.2861 0.0000 -220029.3017 29930.4492 0.0000 0.0000 0.0000 -186480.9687 0.0000 -186480.9687 -186480.9687 0.0000 20658.1499 -2691.7211 534946.2959 20658.1499 -2691.7211
