Info: SIMULATION PARAMETERS:
Info: TIMESTEP               1
Info: NUMBER OF STEPS        0
Info: STEPS PER CYCLE        10
Info: PERIODIC CELL BASIS 1  72.449 0 0
Info: PERIODIC CELL BASIS 2  0 93.247 0
Info: PERIODIC CELL BASIS 3  0 0 79.185
Info: PERIODIC CELL CENTER   -0.248 -0.156 -0.047
Info: WRAPPING WATERS AROUND PERIODIC BOUNDARIES ON OUTPUT.
Info: WRAPPING ALL CLUSTERS AROUND PERIODIC BOUNDARIES ON OUTPUT.
Info: FIRST LDB TIMESTEP     50
Info: LAST LDB TIMESTEP     -1
Info: HOM BACKGROUND SCALING 1
Info: PME BACKGROUND SCALING 1
Info: MIN ATOMS PER PATCH    40
Info: VELOCITY FILE          ../replicas/rep15/equilibration/eq1.vel
Info: CENTER OF MASS MOVING INITIALLY? NO
Info: DIELECTRIC             1
Info: EXCLUDE                SCALED ONE-FOUR
Info: 1-4 ELECTROSTATICS SCALED BY 0.833333
Info: MODIFIED 1-4 VDW PARAMETERS WILL BE USED
Info: DCD FILENAME           ../replicas/rep15/equilibration/eq2.dcd
Info: DCD FREQUENCY          5000
Info: DCD FIRST STEP         5000
Info: DCD FILE WILL CONTAIN UNIT CELL DATA
Info: XST FILENAME           ../replicas/rep15/equilibration/eq2.xst
Info: XST FREQUENCY          5000
Info: NO VELOCITY DCD OUTPUT
Info: NO FORCE DCD OUTPUT
Info: OUTPUT FILENAME        ../replicas/rep15/equilibration/eq2
Info: RESTART FILENAME       ../replicas/rep15/equilibration/eq2.restart
Info: RESTART FREQUENCY      5000
Info: BINARY RESTART FILES WILL BE USED
Info: SWITCHING ACTIVE
Info: SWITCHING ON           10
Info: SWITCHING OFF          12
Info: PAIRLIST DISTANCE      13.5
Info: PAIRLIST SHRINK RATE   0.01
Info: PAIRLIST GROW RATE     0.01
Info: PAIRLIST TRIGGER       0.3
Info: PAIRLISTS PER CYCLE    2
Info: PAIRLISTS ENABLED
Info: MARGIN                 0.48
Info: HYDROGEN GROUP CUTOFF  2.5
Info: PATCH DIMENSION        16.48
Info: ENERGY OUTPUT STEPS    500
Info: CROSSTERM ENERGY INCLUDED IN DIHEDRAL
Info: TIMING OUTPUT STEPS    5000
Info: PRESSURE OUTPUT STEPS  500
Info: HARMONIC CONSTRAINTS ACTIVE
Info: HARMONIC CONS EXP      2
Info: HARMONIC CONS SCALING  10
Info: LANGEVIN DYNAMICS ACTIVE
Info: LANGEVIN TEMPERATURE   300
Info: LANGEVIN USING BBK INTEGRATOR
Info: LANGEVIN DAMPING COEFFICIENT IS 5 INVERSE PS
Info: LANGEVIN DYNAMICS NOT APPLIED TO HYDROGENS
Info: BERENDSEN PRESSURE COUPLING ACTIVE
Info:     TARGET PRESSURE IS 1 BAR
Info:     COMPRESSIBILITY ESTIMATE IS 4.57e-05 BAR^(-1)
Info:     RELAXATION TIME IS 100 FS
Info:     APPLIED EVERY 2 STEPS
Info:     PRESSURE CONTROL IS GROUP-BASED
Info:       CELL FLUCTUATION IS ISOTROPIC
Info: PARTICLE MESH EWALD (PME) ACTIVE
Info: PME TOLERANCE               1e-06
Info: PME EWALD COEFFICIENT       0.257952
Info: PME INTERPOLATION ORDER     4
Info: PME GRID DIMENSIONS         80 96 80
Info: PME MAXIMUM GRID SPACING    1
Info: FULL ELECTROSTATIC EVALUATION FREQUENCY      2
Info: USING VERLET I (r-RESPA) MTS SCHEME.
Info: C1 SPLITTING OF LONG RANGE ELECTROSTATICS
Info: PLACING ATOMS IN PATCHES BY HYDROGEN GROUPS
Info: RIGID BONDS TO HYDROGEN : WATER
Info:         ERROR TOLERANCE : 1e-05
Info:          MAX ITERATIONS : 100
Info: RIGID WATER USING SETTLE ALGORITHM
Info: RANDOM NUMBER SEED     1503708336
Info: USE HYDROGEN BONDS?    NO
Info: Using AMBER format force field!
Info: AMBER PARM FILE        ../build/complex.top
Info: COORDINATE PDB         ../replicas/rep15/equilibration/eq1.coor
Info: Exclusions in PARM file will be ignored!
Info: SCNB (VDW SCALING)     2
Info: USING ARITHMETIC MEAN TO COMBINE L-J SIGMA PARAMETERS
Info: SUMMARY OF PARAMETERS:
Info: 71 BONDS
Info: 145 ANGLES
Info: 76 DIHEDRAL
Info: 0 IMPROPER
Info: 0 CROSSTERM
Info: 0 VDW
Info: 190 VDW_PAIRS
Info: 0 NBTHOLE_PAIRS
Info: STRUCTURE SUMMARY:
Info: 49394 ATOMS
Info: 49448 BONDS
Info: 8698 ANGLES
Info: 18780 DIHEDRALS
Info: 0 IMPROPERS
Info: 0 CROSSTERMS
Info: 0 EXCLUSIONS
Info: 2336 CONSTRAINTS
Info: 44667 RIGID BONDS
Info: 103515 DEGREES OF FREEDOM
Info: 17225 HYDROGEN GROUPS
Info: 4 ATOMS IN LARGEST HYDROGEN GROUP
Info: 17225 MIGRATION GROUPS
Info: 4 ATOMS IN LARGEST MIGRATION GROUP
Info: TOTAL MASS = 301478 amu
Info: TOTAL CHARGE = 1.00115e-05 e
Info: MASS DENSITY = 0.935846 g/cm^3
Info: ATOM DENSITY = 0.0923345 atoms/A^3
Info: ADDED 70656 IMPLICIT EXCLUSIONS
Info: NONBONDED TABLE R-SQUARED SPACING: 0.0625
Info: NONBONDED TABLE SIZE: 769 POINTS
Info: REMOVING COM VELOCITY 0.0328741 -0.035255 -0.00115148
TCL: Running for 5000 steps
ETITLE: TS BOND ANGLE DIHED IMPRP ELECT VDW BOUNDARY MISC KINETIC TOTAL TEMP POTENTIAL TOTAL3 TEMPAVG PRESSURE GPRESSURE VOLUME PRESSAVG GPRESSAVG
ENERGY: 0 398.1533 1238.5162 2901.3098 0.0000 -212360.7155 29291.4633 0.0000 0.0000 10062.0273 -168469.2456 97.8301 -178531.2729 -168459.5807 97.8301 -2439.3982 -2537.1679 534946.2959 -2439.3982 -2537.1679
ENERGY: 1000 1228.7245 1967.2485 3107.0187 0.0000 -193367.3349 26431.8981 795.2664 0.0000 24040.4937 -135796.6850 233.7386 -159837.1787 -135776.7894 218.4789 -99.7235 -16.6314 522353.8255 4.2352 4.1128
ENERGY: 2000 1436.0148 2146.8238 3114.4607 0.0000 -183462.1570 22860.4892 824.0556 0.0000 28213.2155 -124867.0974 274.3088 -153080.3129 -124832.8323 266.0937 -43.4318 -19.0253 516741.6872 -21.0275 -21.2347
ENERGY: 3000 1535.8454 2202.8591 3170.4900 0.0000 -178933.2367 21472.5188 797.9594 0.0000 29564.6062 -120188.9577 287.4479 -149753.5639 -120146.0955 285.8655 -53.5471 -18.7947 509877.0984 -11.1644 -11.5848
ENERGY: 4000 1543.0705 2295.9763 3156.5077 0.0000 -176902.5558 20571.2084 809.7251 0.0000 30253.9557 -118272.1121 294.1503 -148526.0678 -118223.4927 293.4744 25.6344 18.6108 506067.2673 -19.4345 -19.3019
ENERGY: 5000 1589.2316 2323.1252 3156.5144 0.0000 -176424.4341 20745.1398 807.1231 0.0000 30557.6844 -117245.6157 297.1033 -147803.3000 -117198.3597 297.7599 -80.2049 -3.9542 505692.9130 -6.0190 -6.6429
TCL: Setting parameter constraintScaling to 5.0
TCL: Running for 5000 steps
ETITLE: TS BOND ANGLE DIHED IMPRP ELECT VDW BOUNDARY MISC KINETIC TOTAL TEMP POTENTIAL TOTAL3 TEMPAVG PRESSURE GPRESSURE VOLUME PRESSAVG GPRESSAVG
ENERGY: 5000 1589.2316 2323.1252 3156.5144 0.0000 -176424.4341 20745.1398 403.5616 0.0000 30555.6369 -117651.2247 297.0834 -148206.8616 -117606.6113 297.0834 -50.7330 18.3651 505692.9130 -50.7330 18.3651
ENERGY: 6000 1664.4385 2338.5018 3154.6469 0.0000 -175765.2561 20250.4131 662.8926 0.0000 30341.2553 -117353.1081 294.9991 -147694.3634 -117308.7053 297.5286 6.2935 -20.5691 505202.5384 2.3953 2.6965
ENERGY: 7000 1623.1753 2352.6464 3159.2332 0.0000 -175254.0425 19892.9823 651.4422 0.0000 30813.4536 -116761.1096 299.5901 -147574.5632 -116712.2932 299.5382 -41.0943 26.5645 503644.7628 8.3458 9.2227
ENERGY: 8000 1567.3940 2382.3386 3154.2825 0.0000 -175611.2051 20182.5013 610.4790 0.0000 31004.0172 -116710.1925 301.4429 -147714.2097 -116665.8236 300.2950 0.1826 -30.8197 502263.2518 -2.5473 -2.2110
ENERGY: 9000 1641.7929 2360.6548 3180.1439 0.0000 -175269.5590 19969.5559 653.1952 0.0000 30853.1161 -116611.1003 299.9757 -147464.2164 -116560.4047 300.2017 -0.1908 -25.4280 502045.6133 1.0500 0.7253
ENERGY: 10000 1641.9987 2310.4345 3159.7678 0.0000 -174883.7725 19716.5666 658.8195 0.0000 30857.1554 -116539.0298 300.0150 -147396.1853 -116490.0279 301.4466 -53.9999 -43.8242 501963.7281 6.8013 6.4450
TCL: Setting parameter constraintScaling to 2.5
TCL: Running for 5000 steps
ETITLE: TS BOND ANGLE DIHED IMPRP ELECT VDW BOUNDARY MISC KINETIC TOTAL TEMP POTENTIAL TOTAL3 TEMPAVG PRESSURE GPRESSURE VOLUME PRESSAVG GPRESSAVG
ENERGY: 10000 1641.9987 2310.4345 3159.7678 0.0000 -174883.7725 19716.5666 329.4098 0.0000 30855.1084 -116870.4866 299.9951 -147725.5950 -116827.2148 299.9951 -141.5418 -130.8761 501963.7281 -141.5418 -130.8761
ENERGY: 11000 1590.5544 2363.6027 3191.9688 0.0000 -175830.2110 20116.0724 479.9765 0.0000 30847.1468 -117240.8894 299.9177 -148088.0362 -117194.3282 299.4124 -44.0431 66.2682 500938.9592 15.8855 15.6631
ENERGY: 12000 1675.5181 2361.2816 3172.0965 0.0000 -175942.2310 20358.1291 506.8197 0.0000 30967.3084 -116901.0776 301.0860 -147868.3860 -116861.9459 299.8841 -148.0286 -39.3200 500681.8799 7.7520 7.2171
ENERGY: 13000 1600.3574 2389.3424 3177.7440 0.0000 -175954.8617 20363.4793 518.7658 0.0000 30859.0787 -117046.0941 300.0337 -147905.1728 -116990.5764 300.1777 -68.5758 -26.7061 499754.9547 0.1859 0.5916
ENERGY: 14000 1650.3951 2364.7097 3157.5627 0.0000 -175659.0060 20276.2637 520.9378 0.0000 30944.1705 -116744.9666 300.8610 -147689.1371 -116685.2884 300.2797 -52.1156 35.0179 500248.0763 2.0786 2.0551
ENERGY: 15000 1615.4075 2397.2244 3173.3194 0.0000 -175471.4105 19810.0933 522.6355 0.0000 30849.0969 -117103.6335 299.9367 -147952.7304 -117062.9518 300.0286 -89.8673 22.8083 500086.8648 -12.7314 -12.4034
TCL: Setting parameter constraintScaling to 1.25
TCL: Running for 5000 steps
ETITLE: TS BOND ANGLE DIHED IMPRP ELECT VDW BOUNDARY MISC KINETIC TOTAL TEMP POTENTIAL TOTAL3 TEMPAVG PRESSURE GPRESSURE VOLUME PRESSAVG GPRESSAVG
ENERGY: 15000 1615.4075 2397.2244 3173.3194 0.0000 -175471.4106 19810.0933 261.3178 0.0000 30847.0409 -117367.0073 299.9167 -148214.0482 -117323.7904 299.9167 -211.0249 -99.8598 500086.8648 -211.0249 -99.8598
ENERGY: 16000 1620.5135 2355.6161 3175.4313 0.0000 -175417.8108 19978.4293 405.5550 0.0000 30913.0615 -116969.2041 300.5586 -147882.2657 -116934.1321 300.2046 -10.6577 25.6539 499510.4306 12.1861 12.1297
ENERGY: 17000 1652.6265 2431.2681 3188.6601 0.0000 -176009.0138 20315.3656 406.8901 0.0000 30975.2245 -117038.9790 301.1630 -148014.2035 -116993.4714 299.0186 53.6409 79.6108 498306.4616 -11.9005 -12.0993
ENERGY: 18000 1675.5622 2385.5411 3194.4687 0.0000 -175561.4571 19922.5237 403.4671 0.0000 31016.0578 -116963.8365 301.5600 -147979.8943 -116927.7586 300.3800 -102.5310 -16.4112 498087.4807 -9.0451 -9.2071
ENERGY: 19000 1615.8566 2400.7545 3167.1842 0.0000 -175648.9054 19896.1846 407.7106 0.0000 30975.4278 -117185.7871 301.1649 -148161.2150 -117146.5624 299.7330 7.8214 -20.5150 498930.9540 7.1647 6.7805
ENERGY: 20000 1653.5627 2386.8750 3187.4200 0.0000 -176080.9215 20168.8022 368.0590 0.0000 31059.2605 -117256.9422 301.9800 -148316.2026 -117212.6804 300.0238 -85.3809 -56.9444 497930.0680 -5.0322 -5.7768
TCL: Setting parameter constraintScaling to 0.625
TCL: Running for 5000 steps
ETITLE: TS BOND ANGLE DIHED IMPRP ELECT VDW BOUNDARY MISC KINETIC TOTAL TEMP POTENTIAL TOTAL3 TEMPAVG PRESSURE GPRESSURE VOLUME PRESSAVG GPRESSAVG
ENERGY: 20000 1653.5627 2386.8750 3187.4200 0.0000 -176080.9215 20168.8022 184.0295 0.0000 31057.2306 -117443.0015 301.9603 -148500.2321 -117398.1465 301.9603 -115.3466 -88.7216 497930.0680 -115.3466 -88.7216
ENERGY: 21000 1634.2863 2418.6573 3213.5968 0.0000 -175710.2215 19996.4740 301.0463 0.0000 30942.3242 -117203.8365 300.8431 -148146.1608 -117154.2908 299.7000 0.9671 22.9940 498562.5219 8.8256 8.9701
ENERGY: 22000 1638.5610 2437.3048 3199.8930 0.0000 -175805.6189 20055.1366 325.3952 0.0000 30905.2646 -117244.0637 300.4828 -148149.3283 -117204.7423 299.1054 -159.4353 -33.3347 498424.6717 -10.4589 -10.2864
ENERGY: 23000 1736.3665 2413.7237 3182.5622 0.0000 -175924.9299 20310.4656 307.2690 0.0000 30593.8178 -117380.7252 297.4547 -147974.5430 -117333.1091 299.3060 -33.6570 13.8239 498872.1071 2.4638 3.0679
ENERGY: 24000 1639.9388 2380.9287 3230.4631 0.0000 -175669.5426 20127.7081 305.8636 0.0000 30948.0847 -117036.5557 300.8991 -147984.6403 -116995.1890 300.6615 35.6262 21.0810 500324.4436 14.5366 14.1440
ENERGY: 25000 1656.0431 2409.7206 3199.0718 0.0000 -175892.7866 20156.8475 310.3093 0.0000 30932.7902 -117228.0041 300.7504 -148160.7943 -117182.3217 300.2517 22.4010 7.5928 499047.7885 -2.9716 -2.7332
TCL: Setting parameter constraintScaling to 0.3125
TCL: Running for 5000 steps
ETITLE: TS BOND ANGLE DIHED IMPRP ELECT VDW BOUNDARY MISC KINETIC TOTAL TEMP POTENTIAL TOTAL3 TEMPAVG PRESSURE GPRESSURE VOLUME PRESSAVG GPRESSAVG
ENERGY: 25000 1656.0431 2409.7206 3199.0718 0.0000 -175892.7866 20156.8475 155.1547 0.0000 30930.7270 -117385.2219 300.7303 -148315.9490 -117341.7406 300.7303 -14.7859 -24.6818 499047.7885 -14.7859 -24.6818
ENERGY: 26000 1676.6450 2438.5299 3236.3603 0.0000 -176016.5345 20288.3448 230.8029 0.0000 30641.6316 -117504.2200 297.9195 -148145.8515 -117468.2653 298.9315 41.7233 49.8030 498751.3381 -2.2231 -2.1011
ENERGY: 27000 1650.3220 2370.2092 3191.8181 0.0000 -175667.9364 20143.7142 251.1418 0.0000 30766.2482 -117294.4828 299.1311 -148060.7310 -117255.6968 299.9240 -42.9757 78.4375 499388.4285 7.7756 7.9221
ENERGY: 28000 1632.2043 2399.6719 3193.1548 0.0000 -176109.8854 20203.3959 257.0404 0.0000 30975.4439 -117448.9741 301.1651 -148424.4180 -117413.8822 299.7627 -98.5747 -58.1537 498558.7136 -5.9519 -5.9438
ENERGY: 29000 1564.5974 2412.5953 3220.6787 0.0000 -175853.7540 20058.8381 243.6574 0.0000 30998.6742 -117354.7130 301.3910 -148353.3872 -117299.8073 299.6441 -93.9962 -29.9087 497387.7971 1.4090 1.3301
ENERGY: 30000 1618.4767 2361.6819 3181.7624 0.0000 -175815.3370 20141.3454 251.3228 0.0000 30757.0136 -117503.7341 299.0414 -148260.7477 -117453.5367 299.4866 -9.5696 79.6901 497156.8626 6.8674 6.4165
TCL: Setting parameter constraintScaling to 0.15625
TCL: Running for 5000 steps
ETITLE: TS BOND ANGLE DIHED IMPRP ELECT VDW BOUNDARY MISC KINETIC TOTAL TEMP POTENTIAL TOTAL3 TEMPAVG PRESSURE GPRESSURE VOLUME PRESSAVG GPRESSAVG
ENERGY: 30000 1618.4767 2361.6819 3181.7624 0.0000 -175815.3370 20141.3454 125.6614 0.0000 30754.9622 -117631.4469 299.0214 -148386.4092 -117585.3689 299.0214 -14.3628 75.4366 497156.8626 -14.3628 75.4366
ENERGY: 31000 1635.5971 2457.1209 3193.0603 0.0000 -175914.1376 20243.7701 181.8842 0.0000 30713.7764 -117488.9285 298.6210 -148202.7049 -117438.7206 299.7259 30.2472 75.1453 498660.5916 17.6460 18.2161
ENERGY: 32000 1609.2820 2417.2840 3237.6102 0.0000 -175998.6252 20192.4874 200.0221 0.0000 30879.7649 -117462.1746 300.2348 -148341.9396 -117419.4583 300.0188 48.9829 -18.7402 499222.2428 1.6129 1.7632
ENERGY: 33000 1646.4123 2413.5097 3234.2064 0.0000 -175953.6007 20154.5950 221.3975 0.0000 30554.9368 -117728.5431 297.0766 -148283.4799 -117688.2188 298.2292 4.3019 15.9007 499341.4956 -0.1781 -0.4964
ENERGY: 34000 1620.9641 2449.9082 3207.9737 0.0000 -176082.2526 20266.0860 205.7339 0.0000 30678.4260 -117653.1608 298.2773 -148331.5868 -117604.5781 298.5628 57.1179 17.3105 498500.6652 -7.4533 -7.5719
ENERGY: 35000 1635.7991 2380.9771 3214.3974 0.0000 -175786.9012 20195.5422 201.4148 0.0000 30721.3420 -117437.4286 298.6945 -148158.7706 -117396.5680 299.8915 21.3902 12.2493 497236.7340 -10.5636 -10.9979
TCL: Setting parameter constraintScaling to 0.078125
TCL: Running for 5000 steps
ETITLE: TS BOND ANGLE DIHED IMPRP ELECT VDW BOUNDARY MISC KINETIC TOTAL TEMP POTENTIAL TOTAL3 TEMPAVG PRESSURE GPRESSURE VOLUME PRESSAVG GPRESSAVG
ENERGY: 35000 1635.7991 2380.9771 3214.3974 0.0000 -175786.9012 20195.5422 100.7074 0.0000 30719.2934 -117540.1846 298.6746 -148259.4779 -117494.8841 298.6746 5.9819 -9.7822 497236.7340 5.9819 -9.7822
ENERGY: 36000 1622.4236 2445.1891 3221.4509 0.0000 -175461.0848 20001.2559 144.0969 0.0000 30745.6086 -117281.0598 298.9305 -148026.6684 -117242.4401 300.9401 -18.9703 -3.8371 497542.2098 -8.5624 -8.3795
ENERGY: 37000 1618.2102 2447.1397 3247.8969 0.0000 -175581.9153 19917.4088 165.9666 0.0000 30904.9829 -117280.3101 300.4800 -148185.2930 -117240.2023 300.6822 -136.0964 -94.1250 497772.4813 0.1300 -0.0628
ENERGY: 38000 1636.5442 2485.2207 3214.1066 0.0000 -175841.5182 19909.2942 157.6323 0.0000 31118.1276 -117320.5926 302.5524 -148438.7202 -117277.1093 300.0180 -121.3821 -122.2507 496737.5576 1.3032 1.2264
ENERGY: 39000 1600.1835 2401.3809 3221.9318 0.0000 -176022.5921 20162.4683 176.2393 0.0000 30932.6493 -117527.7390 300.7490 -148460.3882 -117483.2202 300.0996 5.0805 57.0528 497131.3952 -0.7139 -0.8244
ENERGY: 40000 1675.6766 2398.2712 3196.3423 0.0000 -176240.3557 20019.2471 171.3118 0.0000 30711.4771 -118068.0297 298.5986 -148779.5067 -118025.7841 298.7186 -119.6635 -122.6567 496395.8351 -5.5364 -5.7906
TCL: Setting parameter constraintScaling to 0.0390625
TCL: Running for 5000 steps
ETITLE: TS BOND ANGLE DIHED IMPRP ELECT VDW BOUNDARY MISC KINETIC TOTAL TEMP POTENTIAL TOTAL3 TEMPAVG PRESSURE GPRESSURE VOLUME PRESSAVG GPRESSAVG
ENERGY: 40000 1675.6766 2398.2712 3196.3423 0.0000 -176240.3557 20019.2471 85.6559 0.0000 30709.3937 -118155.7689 298.5784 -148865.1626 -118111.2105 298.5784 -168.2703 -166.3098 496395.8351 -168.2703 -166.3098
ENERGY: 41000 1625.1175 2497.7780 3233.2950 0.0000 -175541.5481 19954.4347 120.3536 0.0000 30861.7874 -117248.7818 300.0600 -148110.5692 -117206.6986 300.6891 -109.3745 -77.1802 498028.3768 2.7726 2.7958
ENERGY: 42000 1652.5944 2350.3592 3188.0909 0.0000 -175741.9359 20015.2244 115.3118 0.0000 30727.4900 -117692.8653 298.7543 -148420.3553 -117657.5357 299.4765 -65.1223 15.8179 497526.2804 1.8929 2.3468
ENERGY: 43000 1612.2174 2371.1756 3213.7126 0.0000 -175649.8104 20170.3756 123.9036 0.0000 30920.1343 -117238.2914 300.6273 -148158.4256 -117193.7059 299.8709 16.7400 98.2905 498189.4525 18.1129 18.3998
ENERGY: 44000 1598.4857 2393.9424 3194.1550 0.0000 -175765.6467 20226.1679 114.9022 0.0000 30953.8234 -117284.1701 300.9549 -148237.9935 -117238.5002 300.4959 74.3036 42.5041 497401.6271 -2.0493 -2.2929
ENERGY: 45000 1623.7182 2421.1627 3175.3116 0.0000 -175685.5170 19960.2667 126.7615 0.0000 30935.5303 -117442.7660 300.7770 -148378.2963 -117404.2832 300.5302 -156.2695 -32.2209 496794.1021 12.8516 12.7358
TCL: Setting parameter constraintScaling to 0.01953125
TCL: Running for 5000 steps
ETITLE: TS BOND ANGLE DIHED IMPRP ELECT VDW BOUNDARY MISC KINETIC TOTAL TEMP POTENTIAL TOTAL3 TEMPAVG PRESSURE GPRESSURE VOLUME PRESSAVG GPRESSAVG
ENERGY: 45000 1623.7182 2421.1627 3175.3116 0.0000 -175685.5170 19960.2667 63.3808 0.0000 30933.4702 -117508.2069 300.7570 -148441.6771 -117460.8646 300.7570 -171.0346 -52.2127 496794.1021 -171.0346 -52.2127
ENERGY: 46000 1653.6411 2398.4495 3207.0231 0.0000 -176204.8449 20325.7464 79.9032 0.0000 30828.3783 -117711.7033 299.7352 -148540.0816 -117668.6636 299.8464 -57.3951 -81.1961 497951.8565 20.9469 20.7882
ENERGY: 47000 1678.6811 2469.1342 3225.4657 0.0000 -176317.2428 20232.6544 80.4576 0.0000 30536.9656 -118093.8842 296.9019 -148630.8498 -118044.8512 298.7351 39.4436 57.9391 495284.4634 -15.9702 -16.2151
ENERGY: 48000 1671.2643 2421.6546 3170.4784 0.0000 -175876.1709 19835.4201 83.8544 0.0000 30797.5519 -117895.9472 299.4355 -148693.4992 -117839.8506 298.8391 -162.8274 -54.1233 494631.5143 8.4865 8.7534
ENERGY: 49000 1636.1634 2394.5905 3227.4910 0.0000 -176225.9250 20149.7969 93.2694 0.0000 30805.9307 -117918.6832 299.5170 -148724.6139 -117865.8607 299.2206 16.1281 54.0631 496722.6390 19.2965 19.4299
ENERGY: 50000 1702.9472 2350.4679 3185.6113 0.0000 -176332.6039 20113.9794 91.4566 0.0000 30943.0986 -117945.0429 300.8506 -148888.1415 -117909.8832 298.5940 -74.4742 -61.1367 496065.4414 1.7496 1.5172
TCL: Setting parameter constraintScaling to 0
TCL: Running for 5000 steps
ETITLE: TS BOND ANGLE DIHED IMPRP ELECT VDW BOUNDARY MISC KINETIC TOTAL TEMP POTENTIAL TOTAL3 TEMPAVG PRESSURE GPRESSURE VOLUME PRESSAVG GPRESSAVG
ENERGY: 50000 1702.9472 2350.4679 3185.6113 0.0000 -176332.6039 20113.9794 0.0000 0.0000 30941.0631 -118038.5350 300.8308 -148979.5981 -117994.7407 300.8308 -97.9849 -85.0283 496065.4414 -97.9849 -85.0283
ENERGY: 51000 1638.7405 2423.8500 3193.5604 0.0000 -176079.0083 20116.8768 0.0000 0.0000 30740.7903 -117965.1903 298.8836 -148705.9806 -117913.0257 298.5897 -21.4586 49.7808 496540.2722 14.4141 14.3930
ENERGY: 52000 1672.2196 2428.8809 3214.7204 0.0000 -176029.6854 20090.4708 0.0000 0.0000 30663.4201 -117959.9735 298.1314 -148623.3937 -117911.8548 299.1271 -20.3487 -61.4561 496789.7916 -5.5800 -4.5791
ENERGY: 53000 1635.2209 2325.8841 3226.7601 0.0000 -175780.1801 19933.9469 0.0000 0.0000 30964.5870 -117693.7812 301.0595 -148658.3682 -117665.4877 300.2597 174.6740 40.3629 496530.9500 7.4845 8.0284
ENERGY: 54000 1626.7629 2389.4922 3200.6931 0.0000 -175705.0942 19870.0455 0.0000 0.0000 31145.3095 -117472.7910 302.8166 -148618.1005 -117422.8665 301.3931 -83.3237 17.0650 496054.7014 10.2297 10.3227
ENERGY: 55000 1595.8657 2424.7537 3183.1193 0.0000 -175376.1269 19867.8800 0.0000 0.0000 30975.2267 -117329.2816 301.1630 -148304.5083 -117286.1994 300.9668 -109.2367 -13.2261 497355.2255 19.5772 19.7152
