Info: SIMULATION PARAMETERS:
Info: TIMESTEP               1
Info: NUMBER OF STEPS        0
Info: STEPS PER CYCLE        10
Info: PERIODIC CELL BASIS 1  72.449 0 0
Info: PERIODIC CELL BASIS 2  0 93.247 0
Info: PERIODIC CELL BASIS 3  0 0 79.185
Info: PERIODIC CELL CENTER   -0.248 -0.156 -0.047
Info: WRAPPING WATERS AROUND PERIODIC BOUNDARIES ON OUTPUT.
Info: WRAPPING ALL CLUSTERS AROUND PERIODIC BOUNDARIES ON OUTPUT.
Info: FIRST LDB TIMESTEP     50
Info: LAST LDB TIMESTEP     -1
Info: HOM BACKGROUND SCALING 1
Info: PME BACKGROUND SCALING 1
Info: MIN ATOMS PER PATCH    40
Info: VELOCITY FILE          ../replicas/rep100/equilibration/eq1.vel
Info: CENTER OF MASS MOVING INITIALLY? NO
Info: DIELECTRIC             1
Info: EXCLUDE                SCALED ONE-FOUR
Info: 1-4 ELECTROSTATICS SCALED BY 0.833333
Info: MODIFIED 1-4 VDW PARAMETERS WILL BE USED
Info: DCD FILENAME           ../replicas/rep100/equilibration/eq2.dcd
Info: DCD FREQUENCY          5000
Info: DCD FIRST STEP         5000
Info: DCD FILE WILL CONTAIN UNIT CELL DATA
Info: XST FILENAME           ../replicas/rep100/equilibration/eq2.xst
Info: XST FREQUENCY          5000
Info: NO VELOCITY DCD OUTPUT
Info: NO FORCE DCD OUTPUT
Info: OUTPUT FILENAME        ../replicas/rep100/equilibration/eq2
Info: RESTART FILENAME       ../replicas/rep100/equilibration/eq2.restart
Info: RESTART FREQUENCY      5000
Info: BINARY RESTART FILES WILL BE USED
Info: SWITCHING ACTIVE
Info: SWITCHING ON           10
Info: SWITCHING OFF          12
Info: PAIRLIST DISTANCE      13.5
Info: PAIRLIST SHRINK RATE   0.01
Info: PAIRLIST GROW RATE     0.01
Info: PAIRLIST TRIGGER       0.3
Info: PAIRLISTS PER CYCLE    2
Info: PAIRLISTS ENABLED
Info: MARGIN                 0.48
Info: HYDROGEN GROUP CUTOFF  2.5
Info: PATCH DIMENSION        16.48
Info: ENERGY OUTPUT STEPS    500
Info: CROSSTERM ENERGY INCLUDED IN DIHEDRAL
Info: TIMING OUTPUT STEPS    5000
Info: PRESSURE OUTPUT STEPS  500
Info: HARMONIC CONSTRAINTS ACTIVE
Info: HARMONIC CONS EXP      2
Info: HARMONIC CONS SCALING  10
Info: LANGEVIN DYNAMICS ACTIVE
Info: LANGEVIN TEMPERATURE   300
Info: LANGEVIN USING BBK INTEGRATOR
Info: LANGEVIN DAMPING COEFFICIENT IS 5 INVERSE PS
Info: LANGEVIN DYNAMICS NOT APPLIED TO HYDROGENS
Info: BERENDSEN PRESSURE COUPLING ACTIVE
Info:     TARGET PRESSURE IS 1 BAR
Info:     COMPRESSIBILITY ESTIMATE IS 4.57e-05 BAR^(-1)
Info:     RELAXATION TIME IS 100 FS
Info:     APPLIED EVERY 2 STEPS
Info:     PRESSURE CONTROL IS GROUP-BASED
Info:       CELL FLUCTUATION IS ISOTROPIC
Info: PARTICLE MESH EWALD (PME) ACTIVE
Info: PME TOLERANCE               1e-06
Info: PME EWALD COEFFICIENT       0.257952
Info: PME INTERPOLATION ORDER     4
Info: PME GRID DIMENSIONS         80 96 80
Info: PME MAXIMUM GRID SPACING    1
Info: FULL ELECTROSTATIC EVALUATION FREQUENCY      2
Info: USING VERLET I (r-RESPA) MTS SCHEME.
Info: C1 SPLITTING OF LONG RANGE ELECTROSTATICS
Info: PLACING ATOMS IN PATCHES BY HYDROGEN GROUPS
Info: RIGID BONDS TO HYDROGEN : WATER
Info:         ERROR TOLERANCE : 1e-05
Info:          MAX ITERATIONS : 100
Info: RIGID WATER USING SETTLE ALGORITHM
Info: RANDOM NUMBER SEED     1503701066
Info: USE HYDROGEN BONDS?    NO
Info: Using AMBER format force field!
Info: AMBER PARM FILE        ../build/complex.top
Info: COORDINATE PDB         ../replicas/rep100/equilibration/eq1.coor
Info: Exclusions in PARM file will be ignored!
Info: SCNB (VDW SCALING)     2
Info: USING ARITHMETIC MEAN TO COMBINE L-J SIGMA PARAMETERS
Info: SUMMARY OF PARAMETERS:
Info: 71 BONDS
Info: 145 ANGLES
Info: 76 DIHEDRAL
Info: 0 IMPROPER
Info: 0 CROSSTERM
Info: 0 VDW
Info: 190 VDW_PAIRS
Info: 0 NBTHOLE_PAIRS
Info: STRUCTURE SUMMARY:
Info: 49394 ATOMS
Info: 49448 BONDS
Info: 8698 ANGLES
Info: 18780 DIHEDRALS
Info: 0 IMPROPERS
Info: 0 CROSSTERMS
Info: 0 EXCLUSIONS
Info: 2336 CONSTRAINTS
Info: 44667 RIGID BONDS
Info: 103515 DEGREES OF FREEDOM
Info: 17225 HYDROGEN GROUPS
Info: 4 ATOMS IN LARGEST HYDROGEN GROUP
Info: 17225 MIGRATION GROUPS
Info: 4 ATOMS IN LARGEST MIGRATION GROUP
Info: TOTAL MASS = 301478 amu
Info: TOTAL CHARGE = 1.00115e-05 e
Info: MASS DENSITY = 0.935846 g/cm^3
Info: ATOM DENSITY = 0.0923345 atoms/A^3
Info: ADDED 70656 IMPLICIT EXCLUSIONS
Info: NONBONDED TABLE R-SQUARED SPACING: 0.0625
Info: NONBONDED TABLE SIZE: 769 POINTS
Info: REMOVING COM VELOCITY -0.0218838 0.0033833 0.00339534
TCL: Running for 5000 steps
ETITLE: TS BOND ANGLE DIHED IMPRP ELECT VDW BOUNDARY MISC KINETIC TOTAL TEMP POTENTIAL TOTAL3 TEMPAVG PRESSURE GPRESSURE VOLUME PRESSAVG GPRESSAVG
ENERGY: 0 389.1770 1186.2157 2916.1387 0.0000 -212898.5735 29693.8691 0.0000 0.0000 10030.8675 -168682.3055 97.5272 -178713.1730 -168672.7794 97.5272 -2298.7715 -2397.9732 534946.2959 -2298.7715 -2397.9732
ENERGY: 1000 1248.7101 1998.8982 3111.8883 0.0000 -193685.4385 26518.2806 756.5440 0.0000 24214.3427 -135836.7745 235.4289 -160051.1172 -135800.6909 218.2159 15.6555 42.2898 520660.5079 -15.6503 -16.2845
ENERGY: 2000 1487.5022 2181.9924 3103.3182 0.0000 -183987.0755 23084.9240 815.2548 0.0000 27630.1008 -125683.9831 268.6393 -153314.0839 -125645.3913 263.2876 -7.6603 0.1501 515687.2586 -29.7461 -29.8150
ENERGY: 3000 1543.9806 2251.9864 3144.1875 0.0000 -179028.0879 21570.1797 789.8017 0.0000 29516.2670 -120211.6852 286.9779 -149727.9521 -120175.7523 284.2636 -41.3974 6.5287 510666.3687 -21.6981 -21.7236
ENERGY: 4000 1568.9060 2243.4749 3112.3062 0.0000 -177124.9846 20906.0295 788.5914 0.0000 30376.5092 -118129.1672 295.3418 -148505.6765 -118094.8999 292.9650 13.3790 -13.9750 508851.6198 -10.4454 -10.0984
ENERGY: 5000 1550.0216 2242.7057 3128.4157 0.0000 -176595.3285 20882.9781 794.8694 0.0000 30799.4267 -117196.9114 299.4537 -147996.3381 -117150.1811 297.9560 21.3244 -14.8829 504943.0488 -12.6399 -12.8328
TCL: Setting parameter constraintScaling to 5.0
TCL: Running for 5000 steps
ETITLE: TS BOND ANGLE DIHED IMPRP ELECT VDW BOUNDARY MISC KINETIC TOTAL TEMP POTENTIAL TOTAL3 TEMPAVG PRESSURE GPRESSURE VOLUME PRESSAVG GPRESSAVG
ENERGY: 5000 1550.0216 2242.7057 3128.4157 0.0000 -176595.3284 20882.9781 397.4347 0.0000 30797.3400 -117596.4328 299.4334 -148393.7728 -117549.5337 299.4334 48.8188 22.4532 504943.0488 48.8188 22.4532
ENERGY: 6000 1573.6853 2315.0543 3171.1276 0.0000 -175529.6402 20427.3553 654.6085 0.0000 30598.9589 -116788.8502 297.5046 -147387.8091 -116741.0872 299.0733 42.1544 -21.5142 505013.7846 4.4839 4.7804
ENERGY: 7000 1629.2969 2287.6499 3168.2569 0.0000 -175141.4924 19950.4380 659.0921 0.0000 30958.1870 -116488.5717 300.9973 -147446.7587 -116439.0045 300.1772 -144.5573 -13.5508 504745.1080 2.8331 2.8833
ENERGY: 8000 1613.4608 2295.9292 3143.7191 0.0000 -175755.8988 20525.3591 636.6621 0.0000 30980.2516 -116560.5168 301.2118 -147540.7685 -116521.6890 300.8556 12.6022 37.6813 501883.1219 -21.0017 -20.1168
ENERGY: 9000 1573.2725 2330.0198 3181.0634 0.0000 -175891.6011 20330.9827 648.9966 0.0000 30766.1994 -117061.0667 299.1307 -147827.2661 -117012.2589 299.9829 3.1264 -27.9627 501773.3891 -0.3842 -0.9057
ENERGY: 10000 1557.4225 2290.2066 3148.2143 0.0000 -175183.7330 20045.8647 655.2292 0.0000 30812.5632 -116674.2325 299.5815 -147486.7957 -116633.8095 300.2960 -57.7904 28.8831 500129.2285 -12.9150 -13.5488
TCL: Setting parameter constraintScaling to 2.5
TCL: Running for 5000 steps
ETITLE: TS BOND ANGLE DIHED IMPRP ELECT VDW BOUNDARY MISC KINETIC TOTAL TEMP POTENTIAL TOTAL3 TEMPAVG PRESSURE GPRESSURE VOLUME PRESSAVG GPRESSAVG
ENERGY: 10000 1557.4225 2290.2066 3148.2143 0.0000 -175183.7330 20045.8647 327.6146 0.0000 30810.5263 -117003.8840 299.5617 -147814.4103 -116960.4507 299.5617 -114.4749 -19.4966 500129.2285 -114.4749 -19.4966
ENERGY: 11000 1614.8658 2344.4726 3167.5578 0.0000 -175078.5474 19925.6198 551.4039 0.0000 30714.5375 -116760.0899 298.6284 -147474.6275 -116720.7072 299.8480 -52.4986 -23.1575 501963.1374 10.4838 10.8258
ENERGY: 12000 1651.9675 2306.4319 3198.2167 0.0000 -175527.1242 20181.0615 498.5851 0.0000 30754.4672 -116936.3944 299.0166 -147690.8616 -116903.3245 299.9574 -88.3585 0.8287 501438.5937 5.2151 5.1351
ENERGY: 13000 1601.2801 2386.3438 3158.9559 0.0000 -175572.1721 20034.0629 508.7340 0.0000 30705.9667 -117176.8287 298.5450 -147882.7954 -117126.1282 299.7677 -71.7754 -12.4830 500507.7830 -7.3995 -7.4360
ENERGY: 14000 1621.7237 2303.9370 3188.5801 0.0000 -175424.2426 19835.6652 527.8238 0.0000 30666.3029 -117280.2099 298.1594 -147946.5128 -117240.8157 299.6626 18.0645 64.7938 499427.6944 2.6500 2.7841
ENERGY: 15000 1640.4620 2292.9977 3192.3191 0.0000 -175723.7617 20124.3658 515.0182 0.0000 30780.4755 -117178.1234 299.2695 -147958.5989 -117142.2880 298.7667 -80.9210 -21.7372 499797.1837 7.4561 7.4493
TCL: Setting parameter constraintScaling to 1.25
TCL: Running for 5000 steps
ETITLE: TS BOND ANGLE DIHED IMPRP ELECT VDW BOUNDARY MISC KINETIC TOTAL TEMP POTENTIAL TOTAL3 TEMPAVG PRESSURE GPRESSURE VOLUME PRESSAVG GPRESSAVG
ENERGY: 15000 1640.4620 2292.9977 3192.3191 0.0000 -175723.7617 20124.3658 257.5091 0.0000 30778.4297 -117437.6783 299.2496 -148216.1080 -117394.0140 299.2496 -124.9271 -67.7351 499797.1837 -124.9271 -67.7351
ENERGY: 16000 1603.1556 2392.2047 3167.7232 0.0000 -175355.8862 19967.8845 399.0418 0.0000 30867.3636 -116958.5127 300.1143 -147825.8763 -116922.1977 300.0007 -28.4663 41.6095 500700.2198 5.2745 5.1880
ENERGY: 17000 1639.0481 2369.9998 3171.5339 0.0000 -175747.1531 20077.2926 390.2511 0.0000 30694.2083 -117404.8194 298.4307 -148099.0277 -117351.2465 299.7905 -20.2647 1.1469 500698.6278 4.8648 4.8217
ENERGY: 18000 1593.4487 2357.8075 3185.6979 0.0000 -176040.5917 20222.3334 391.3289 0.0000 30905.1984 -117384.7768 300.4821 -148289.9752 -117350.7056 299.7668 -27.8478 58.1737 497787.0120 -15.9687 -15.2543
ENERGY: 19000 1628.7249 2407.3444 3212.9702 0.0000 -175578.9832 19909.0329 402.8906 0.0000 30729.8757 -117288.1445 298.7775 -148018.0202 -117240.8972 299.0648 -60.4729 -29.4758 497601.6165 -10.7049 -10.2792
ENERGY: 20000 1570.2834 2406.0596 3162.3527 0.0000 -175628.8474 19930.1532 413.6757 0.0000 31034.1963 -117112.1265 301.7363 -148146.3228 -117052.8849 299.4561 -55.6926 -18.8333 498457.6647 12.0023 11.8624
TCL: Setting parameter constraintScaling to 0.625
TCL: Running for 5000 steps
ETITLE: TS BOND ANGLE DIHED IMPRP ELECT VDW BOUNDARY MISC KINETIC TOTAL TEMP POTENTIAL TOTAL3 TEMPAVG PRESSURE GPRESSURE VOLUME PRESSAVG GPRESSAVG
ENERGY: 20000 1570.2834 2406.0596 3162.3527 0.0000 -175628.8474 19930.1532 206.8379 0.0000 31032.1585 -117321.0021 301.7165 -148353.1607 -117277.4055 301.7165 -93.2007 -54.8158 498457.6647 -93.2007 -54.8158
ENERGY: 21000 1628.5227 2408.0878 3225.5337 0.0000 -175589.4443 19963.5408 297.3208 0.0000 31170.4923 -116895.9462 303.0615 -148066.4385 -116848.8012 300.8731 -50.8429 -19.7192 497794.7272 -5.9975 -6.6622
ENERGY: 22000 1590.7551 2438.0861 3221.4181 0.0000 -175790.7689 20081.6525 307.0110 0.0000 30884.7535 -117267.0926 300.2833 -148151.8462 -117226.6079 298.9909 -82.7696 15.4887 498928.1741 -7.4201 -7.0389
ENERGY: 23000 1600.4270 2367.5154 3172.3255 0.0000 -175685.5337 20129.5452 320.2966 0.0000 30713.1624 -117382.2614 298.6150 -148095.4239 -117331.3908 298.3746 48.0147 41.5281 499207.5166 1.5273 1.3849
ENERGY: 24000 1628.5905 2341.7949 3220.0005 0.0000 -175389.9318 19907.9389 335.3482 0.0000 30750.8107 -117205.4480 298.9811 -147956.2588 -117159.3589 299.7740 20.9650 -8.6114 499026.4662 1.4740 1.4160
ENERGY: 25000 1594.1030 2363.8794 3200.5773 0.0000 -176183.8007 20193.8646 330.1026 0.0000 30865.0634 -117636.2104 300.0919 -148501.2738 -117588.2335 299.2232 45.9053 56.1651 497355.5044 -5.7696 -5.7899
TCL: Setting parameter constraintScaling to 0.3125
TCL: Running for 5000 steps
ETITLE: TS BOND ANGLE DIHED IMPRP ELECT VDW BOUNDARY MISC KINETIC TOTAL TEMP POTENTIAL TOTAL3 TEMPAVG PRESSURE GPRESSURE VOLUME PRESSAVG GPRESSAVG
ENERGY: 25000 1594.1030 2363.8794 3200.5773 0.0000 -176183.8007 20193.8646 165.0513 0.0000 30863.0323 -117803.2928 300.0722 -148666.3251 -117760.6650 300.0722 36.8726 43.1761 497355.5044 36.8726 43.1761
ENERGY: 26000 1635.3926 2401.5353 3189.7637 0.0000 -175963.5835 20248.1491 235.9030 0.0000 30829.1872 -117423.6526 299.7431 -148252.8399 -117375.7456 299.3555 118.3568 56.6466 498213.5265 14.2936 14.2245
ENERGY: 27000 1611.0253 2348.3953 3188.9959 0.0000 -176094.0782 20052.6810 260.6658 0.0000 30651.3541 -117980.9607 298.0141 -148632.3149 -117930.0191 298.3379 -15.3830 31.6621 496961.7483 -7.3793 -7.4246
ENERGY: 28000 1655.4059 2377.2542 3189.5313 0.0000 -175492.6557 19719.0918 243.2426 0.0000 30616.4262 -117691.7036 297.6745 -148308.1298 -117646.8810 299.0335 -41.3090 -38.1991 498583.0863 4.3154 4.1613
ENERGY: 29000 1623.9738 2378.0184 3203.2777 0.0000 -176334.4352 20317.9618 229.7381 0.0000 30710.7042 -117870.7612 298.5911 -148581.4654 -117829.5257 298.7645 -50.9202 14.6604 498190.6311 8.9668 8.3945
ENERGY: 30000 1624.9345 2381.9273 3188.9895 0.0000 -175863.9577 20071.5608 259.7371 0.0000 30981.8680 -117354.9405 301.2276 -148336.8085 -117306.5799 299.7075 -46.3863 -73.8424 498564.1752 7.5365 8.0834
TCL: Setting parameter constraintScaling to 0.15625
TCL: Running for 5000 steps
ETITLE: TS BOND ANGLE DIHED IMPRP ELECT VDW BOUNDARY MISC KINETIC TOTAL TEMP POTENTIAL TOTAL3 TEMPAVG PRESSURE GPRESSURE VOLUME PRESSAVG GPRESSAVG
ENERGY: 30000 1624.9345 2381.9273 3188.9895 0.0000 -175863.9577 20071.5608 129.8686 0.0000 30979.7816 -117486.8954 301.2073 -148466.6770 -117438.1805 301.2073 -94.4090 -128.1691 498564.1752 -94.4090 -128.1691
ENERGY: 31000 1694.5080 2419.7579 3191.7975 0.0000 -176085.9967 20102.0450 168.6934 0.0000 30844.3065 -117664.8884 299.8901 -148509.1949 -117617.7106 299.7841 -123.9743 -30.9331 496545.0264 -10.5988 -10.4243
ENERGY: 32000 1690.4915 2404.2165 3231.6826 0.0000 -176253.0216 20234.0023 180.7601 0.0000 30689.1114 -117822.7572 298.3812 -148511.8686 -117774.9149 298.5491 -189.4640 -159.4756 497942.0392 9.7591 9.8596
ENERGY: 33000 1625.0055 2482.8072 3197.5454 0.0000 -175675.8529 19987.8982 194.0956 0.0000 31028.6735 -117159.8274 301.6826 -148188.5009 -117103.4535 300.0064 -161.2779 -99.3998 498785.7535 6.5186 6.4581
ENERGY: 34000 1662.3782 2405.2627 3189.4703 0.0000 -175970.9884 20270.9488 198.8822 0.0000 30813.8771 -117430.1691 299.5942 -148244.0462 -117384.0008 299.2100 -2.4531 -14.9588 497794.7618 -6.8788 -7.4990
ENERGY: 35000 1681.5490 2428.8062 3166.5511 0.0000 -175690.3561 19921.6376 217.7326 0.0000 30721.7985 -117552.2811 298.6990 -148274.0796 -117505.8266 299.1470 -151.8678 -8.9712 498015.7150 -8.5068 -8.0597
TCL: Setting parameter constraintScaling to 0.078125
TCL: Running for 5000 steps
ETITLE: TS BOND ANGLE DIHED IMPRP ELECT VDW BOUNDARY MISC KINETIC TOTAL TEMP POTENTIAL TOTAL3 TEMPAVG PRESSURE GPRESSURE VOLUME PRESSAVG GPRESSAVG
ENERGY: 35000 1681.5490 2428.8062 3166.5511 0.0000 -175690.3561 19921.6376 108.8663 0.0000 30719.7821 -117663.1637 298.6794 -148382.9459 -117620.7279 298.6794 -177.7849 -43.5405 498015.7150 -177.7849 -43.5405
ENERGY: 36000 1658.4765 2368.2494 3211.2763 0.0000 -175919.7180 20248.9194 142.5257 0.0000 30791.4045 -117498.8661 299.3757 -148290.2706 -117452.4943 299.4692 10.6946 24.0474 497247.8715 6.4804 6.3995
ENERGY: 37000 1602.3086 2371.0705 3178.0342 0.0000 -175719.3591 19859.2557 159.6995 0.0000 31014.7187 -117534.2719 301.5470 -148548.9906 -117490.9027 299.3770 -31.8446 -81.0404 498136.6859 6.2382 6.0735
ENERGY: 38000 1620.0386 2395.8366 3215.7950 0.0000 -175418.2649 19904.6151 166.6042 0.0000 30727.3652 -117388.0102 298.7531 -148115.3754 -117338.7354 299.6730 -183.0583 -113.2445 498548.4306 3.2593 3.2020
ENERGY: 39000 1622.2993 2416.4278 3200.3822 0.0000 -175914.1579 20105.9844 170.7843 0.0000 30934.6940 -117463.5859 300.7689 -148398.2799 -117417.1400 299.4075 57.1658 2.1237 496923.7061 3.4358 3.5256
ENERGY: 40000 1618.7552 2368.8019 3207.4067 0.0000 -175956.5335 20010.2222 177.8907 0.0000 30806.1101 -117767.3468 299.5187 -148573.4569 -117719.1227 299.3687 205.3397 156.3669 496992.6232 -1.4701 -1.4821
TCL: Setting parameter constraintScaling to 0.0390625
TCL: Running for 5000 steps
ETITLE: TS BOND ANGLE DIHED IMPRP ELECT VDW BOUNDARY MISC KINETIC TOTAL TEMP POTENTIAL TOTAL3 TEMPAVG PRESSURE GPRESSURE VOLUME PRESSAVG GPRESSAVG
ENERGY: 40000 1618.7552 2368.8019 3207.4067 0.0000 -175956.5335 20010.2222 88.9454 0.0000 30804.0528 -117858.3494 299.4987 -148662.4022 -117816.8383 299.4987 187.9263 135.7485 496992.6232 187.9263 135.7485
ENERGY: 41000 1657.8979 2405.1689 3235.4123 0.0000 -176028.4337 20092.1941 112.3821 0.0000 30751.2335 -117774.1449 298.9852 -148525.3784 -117732.6647 298.9718 -31.7434 20.0798 495581.8530 -16.9522 -16.8711
ENERGY: 42000 1636.2890 2376.1436 3221.9676 0.0000 -176103.5444 19848.9711 123.3374 0.0000 30820.1146 -118076.7211 299.6549 -148896.8357 -118041.1812 298.7362 -36.2993 -114.1338 495487.4861 -0.1852 -0.5388
ENERGY: 43000 1549.7834 2463.0906 3190.6220 0.0000 -176019.0388 19909.2391 128.6976 0.0000 30992.5418 -117785.0642 301.3313 -148777.6060 -117750.7276 299.4715 116.1846 43.3193 496324.2019 2.4302 2.5984
ENERGY: 44000 1633.9437 2434.0248 3221.9381 0.0000 -176288.4808 20184.0927 140.7122 0.0000 31013.3865 -117660.3829 301.5340 -148673.7694 -117609.3722 299.2338 39.6386 -10.0059 497218.9748 3.7934 3.9348
ENERGY: 45000 1617.9174 2444.8869 3198.3600 0.0000 -175814.6382 19999.7118 135.2824 0.0000 30917.2924 -117501.1873 300.5997 -148418.4797 -117459.8755 300.3165 107.0753 58.7246 496892.9360 1.4227 1.3068
TCL: Setting parameter constraintScaling to 0.01953125
TCL: Running for 5000 steps
ETITLE: TS BOND ANGLE DIHED IMPRP ELECT VDW BOUNDARY MISC KINETIC TOTAL TEMP POTENTIAL TOTAL3 TEMPAVG PRESSURE GPRESSURE VOLUME PRESSAVG GPRESSAVG
ENERGY: 45000 1617.9174 2444.8869 3198.3600 0.0000 -175814.6382 19999.7118 67.6412 0.0000 30915.2768 -117570.8441 300.5801 -148486.1209 -117523.0863 300.5801 93.2515 39.9603 496892.9360 93.2515 39.9603
ENERGY: 46000 1645.7301 2426.9463 3169.7267 0.0000 -176217.7355 20163.9139 84.1550 0.0000 30970.5198 -117756.7438 301.1172 -148727.2636 -117706.3990 299.4255 -9.7737 35.9846 497075.9684 3.0272 3.1229
ENERGY: 47000 1611.9892 2387.6037 3196.5225 0.0000 -175809.7381 19993.1128 82.8892 0.0000 30629.6876 -117907.9330 297.8034 -148537.6206 -117861.3783 299.0952 20.8496 43.1194 497397.3273 -5.7193 -5.1658
ENERGY: 48000 1643.1691 2377.5439 3181.3155 0.0000 -176089.5074 20108.4821 85.6336 0.0000 30730.1445 -117963.2185 298.7801 -148693.3630 -117919.9503 298.4985 -159.9211 -86.7443 497447.9060 -1.4529 -1.3380
ENERGY: 49000 1650.7794 2397.2831 3208.9834 0.0000 -176022.3667 20106.9852 87.7052 0.0000 30768.5956 -117802.0349 299.1540 -148570.6305 -117745.9207 299.6320 91.2483 51.6119 496307.3088 -13.6348 -13.7570
ENERGY: 50000 1630.8313 2432.4006 3181.1933 0.0000 -175876.5238 20034.2865 96.4118 0.0000 30809.4191 -117691.9811 299.5509 -148501.4003 -117651.5297 299.3745 77.8189 45.3892 497381.2636 -8.2857 -9.0230
TCL: Setting parameter constraintScaling to 0
TCL: Running for 5000 steps
ETITLE: TS BOND ANGLE DIHED IMPRP ELECT VDW BOUNDARY MISC KINETIC TOTAL TEMP POTENTIAL TOTAL3 TEMPAVG PRESSURE GPRESSURE VOLUME PRESSAVG GPRESSAVG
ENERGY: 50000 1630.8313 2432.4006 3181.1933 0.0000 -175876.5238 20034.2865 0.0000 0.0000 30807.3800 -117790.4321 299.5311 -148597.8121 -117751.4468 299.5311 61.2330 38.4131 497381.2636 61.2330 38.4131
ENERGY: 51000 1671.7998 2398.1545 3210.3636 0.0000 -176235.6786 20210.7119 0.0000 0.0000 30721.4058 -118023.2430 298.6952 -148744.6488 -117976.0096 299.8436 57.0183 58.8540 496883.9630 2.8169 2.9685
ENERGY: 52000 1596.1230 2406.2127 3207.0064 0.0000 -175986.0891 20057.0488 0.0000 0.0000 31042.3823 -117677.3159 301.8159 -148719.6982 -117630.8170 299.6825 79.1654 129.4415 496833.7037 7.5667 7.5855
ENERGY: 53000 1666.8067 2425.7074 3210.1200 0.0000 -175851.5470 20087.6714 0.0000 0.0000 30772.2080 -117689.0333 299.1891 -148461.2414 -117654.3169 300.3658 60.0022 47.4439 496796.8994 -1.5554 -1.4737
ENERGY: 54000 1645.9770 2395.1930 3225.9835 0.0000 -176161.9127 20128.3206 0.0000 0.0000 30696.5885 -118069.8502 298.4539 -148766.4387 -118021.7603 299.8640 -95.2588 -32.3481 496405.0127 -9.9188 -10.0707
ENERGY: 55000 1545.2420 2487.1435 3204.2380 0.0000 -176323.4308 20257.1273 0.0000 0.0000 30797.9177 -118031.7624 299.4391 -148829.6801 -117984.6794 299.6299 47.5717 161.4915 496391.3501 1.3824 1.0592
