Info: SIMULATION PARAMETERS:
Info: TIMESTEP               1
Info: NUMBER OF STEPS        0
Info: STEPS PER CYCLE        10
Info: PERIODIC CELL BASIS 1  72.449 0 0
Info: PERIODIC CELL BASIS 2  0 93.247 0
Info: PERIODIC CELL BASIS 3  0 0 79.185
Info: PERIODIC CELL CENTER   -0.248 -0.156 -0.047
Info: WRAPPING WATERS AROUND PERIODIC BOUNDARIES ON OUTPUT.
Info: WRAPPING ALL CLUSTERS AROUND PERIODIC BOUNDARIES ON OUTPUT.
Info: FIRST LDB TIMESTEP     50
Info: LAST LDB TIMESTEP     -1
Info: HOM BACKGROUND SCALING 1
Info: PME BACKGROUND SCALING 1
Info: MIN ATOMS PER PATCH    40
Info: VELOCITY FILE          ../replicas/rep76/equilibration/eq1.vel
Info: CENTER OF MASS MOVING INITIALLY? NO
Info: DIELECTRIC             1
Info: EXCLUDE                SCALED ONE-FOUR
Info: 1-4 ELECTROSTATICS SCALED BY 0.833333
Info: MODIFIED 1-4 VDW PARAMETERS WILL BE USED
Info: DCD FILENAME           ../replicas/rep76/equilibration/eq2.dcd
Info: DCD FREQUENCY          5000
Info: DCD FIRST STEP         5000
Info: DCD FILE WILL CONTAIN UNIT CELL DATA
Info: XST FILENAME           ../replicas/rep76/equilibration/eq2.xst
Info: XST FREQUENCY          5000
Info: NO VELOCITY DCD OUTPUT
Info: NO FORCE DCD OUTPUT
Info: OUTPUT FILENAME        ../replicas/rep76/equilibration/eq2
Info: RESTART FILENAME       ../replicas/rep76/equilibration/eq2.restart
Info: RESTART FREQUENCY      5000
Info: BINARY RESTART FILES WILL BE USED
Info: SWITCHING ACTIVE
Info: SWITCHING ON           10
Info: SWITCHING OFF          12
Info: PAIRLIST DISTANCE      13.5
Info: PAIRLIST SHRINK RATE   0.01
Info: PAIRLIST GROW RATE     0.01
Info: PAIRLIST TRIGGER       0.3
Info: PAIRLISTS PER CYCLE    2
Info: PAIRLISTS ENABLED
Info: MARGIN                 0.48
Info: HYDROGEN GROUP CUTOFF  2.5
Info: PATCH DIMENSION        16.48
Info: ENERGY OUTPUT STEPS    500
Info: CROSSTERM ENERGY INCLUDED IN DIHEDRAL
Info: TIMING OUTPUT STEPS    5000
Info: PRESSURE OUTPUT STEPS  500
Info: HARMONIC CONSTRAINTS ACTIVE
Info: HARMONIC CONS EXP      2
Info: HARMONIC CONS SCALING  10
Info: LANGEVIN DYNAMICS ACTIVE
Info: LANGEVIN TEMPERATURE   300
Info: LANGEVIN USING BBK INTEGRATOR
Info: LANGEVIN DAMPING COEFFICIENT IS 5 INVERSE PS
Info: LANGEVIN DYNAMICS NOT APPLIED TO HYDROGENS
Info: BERENDSEN PRESSURE COUPLING ACTIVE
Info:     TARGET PRESSURE IS 1 BAR
Info:     COMPRESSIBILITY ESTIMATE IS 4.57e-05 BAR^(-1)
Info:     RELAXATION TIME IS 100 FS
Info:     APPLIED EVERY 2 STEPS
Info:     PRESSURE CONTROL IS GROUP-BASED
Info:       CELL FLUCTUATION IS ISOTROPIC
Info: PARTICLE MESH EWALD (PME) ACTIVE
Info: PME TOLERANCE               1e-06
Info: PME EWALD COEFFICIENT       0.257952
Info: PME INTERPOLATION ORDER     4
Info: PME GRID DIMENSIONS         80 96 80
Info: PME MAXIMUM GRID SPACING    1
Info: FULL ELECTROSTATIC EVALUATION FREQUENCY      2
Info: USING VERLET I (r-RESPA) MTS SCHEME.
Info: C1 SPLITTING OF LONG RANGE ELECTROSTATICS
Info: PLACING ATOMS IN PATCHES BY HYDROGEN GROUPS
Info: RIGID BONDS TO HYDROGEN : WATER
Info:         ERROR TOLERANCE : 1e-05
Info:          MAX ITERATIONS : 100
Info: RIGID WATER USING SETTLE ALGORITHM
Info: RANDOM NUMBER SEED     1503709960
Info: USE HYDROGEN BONDS?    NO
Info: Using AMBER format force field!
Info: AMBER PARM FILE        ../build/complex.top
Info: COORDINATE PDB         ../replicas/rep76/equilibration/eq1.coor
Info: Exclusions in PARM file will be ignored!
Info: SCNB (VDW SCALING)     2
Info: USING ARITHMETIC MEAN TO COMBINE L-J SIGMA PARAMETERS
Info: SUMMARY OF PARAMETERS:
Info: 71 BONDS
Info: 145 ANGLES
Info: 76 DIHEDRAL
Info: 0 IMPROPER
Info: 0 CROSSTERM
Info: 0 VDW
Info: 190 VDW_PAIRS
Info: 0 NBTHOLE_PAIRS
Info: STRUCTURE SUMMARY:
Info: 49394 ATOMS
Info: 49448 BONDS
Info: 8698 ANGLES
Info: 18780 DIHEDRALS
Info: 0 IMPROPERS
Info: 0 CROSSTERMS
Info: 0 EXCLUSIONS
Info: 2336 CONSTRAINTS
Info: 44667 RIGID BONDS
Info: 103515 DEGREES OF FREEDOM
Info: 17225 HYDROGEN GROUPS
Info: 4 ATOMS IN LARGEST HYDROGEN GROUP
Info: 17225 MIGRATION GROUPS
Info: 4 ATOMS IN LARGEST MIGRATION GROUP
Info: TOTAL MASS = 301478 amu
Info: TOTAL CHARGE = 1.00115e-05 e
Info: MASS DENSITY = 0.935846 g/cm^3
Info: ATOM DENSITY = 0.0923345 atoms/A^3
Info: ADDED 70656 IMPLICIT EXCLUSIONS
Info: NONBONDED TABLE R-SQUARED SPACING: 0.0625
Info: NONBONDED TABLE SIZE: 769 POINTS
Info: REMOVING COM VELOCITY -0.00682122 0.00854567 0.00648835
TCL: Running for 5000 steps
ETITLE: TS BOND ANGLE DIHED IMPRP ELECT VDW BOUNDARY MISC KINETIC TOTAL TEMP POTENTIAL TOTAL3 TEMPAVG PRESSURE GPRESSURE VOLUME PRESSAVG GPRESSAVG
ENERGY: 0 373.3351 1184.0714 2919.4385 0.0000 -212635.7183 29501.4513 0.0000 0.0000 10036.4310 -168620.9910 97.5813 -178657.4220 -168611.5877 97.5813 -2397.4077 -2495.6476 534946.2959 -2397.4077 -2495.6476
ENERGY: 1000 1213.6477 1991.0999 3099.9688 0.0000 -193754.2628 26670.5539 761.9517 0.0000 23945.7487 -136071.2922 232.8174 -160017.0409 -136038.3382 218.1928 -57.6869 -4.5507 521771.3244 -24.2560 -24.4983
ENERGY: 2000 1464.7041 2130.1266 3139.5475 0.0000 -184350.1947 23200.6744 796.5611 0.0000 27942.3105 -125676.2705 271.6748 -153618.5810 -125638.2666 264.2822 -8.1012 -25.1387 514889.9869 -24.8752 -24.8591
ENERGY: 3000 1446.8277 2216.7136 3159.9858 0.0000 -179710.0930 21817.8303 798.6390 0.0000 29524.6007 -120745.4959 287.0590 -150270.0967 -120712.5135 283.7152 -108.7300 -46.3159 509320.0370 -16.0173 -16.0503
ENERGY: 4000 1537.2831 2197.8300 3138.8814 0.0000 -177047.0373 20551.7761 794.4211 0.0000 30252.4748 -118574.3707 294.1359 -148826.8455 -118537.3186 292.0308 -37.6165 -36.1682 505707.1611 0.5541 0.7119
ENERGY: 5000 1489.6685 2179.6266 3138.6804 0.0000 -175800.7344 20131.8407 789.9044 0.0000 30294.3500 -117776.6637 294.5430 -148071.0137 -117730.5306 295.3719 -110.4535 18.2060 503673.4668 -14.0604 -13.3982
TCL: Setting parameter constraintScaling to 5.0
TCL: Running for 5000 steps
ETITLE: TS BOND ANGLE DIHED IMPRP ELECT VDW BOUNDARY MISC KINETIC TOTAL TEMP POTENTIAL TOTAL3 TEMPAVG PRESSURE GPRESSURE VOLUME PRESSAVG GPRESSAVG
ENERGY: 5000 1489.6685 2179.6266 3138.6804 0.0000 -175800.7344 20131.8407 394.9522 0.0000 30292.2906 -118173.6754 294.5230 -148465.9660 -118132.7843 294.5230 -232.2672 -104.3142 503673.4668 -232.2672 -104.3142
ENERGY: 6000 1550.8541 2259.9466 3148.0209 0.0000 -175266.1625 20019.0800 615.6836 0.0000 30684.5411 -116988.0362 298.3367 -147672.5774 -116947.8828 296.9329 -29.2398 -12.0932 501632.1860 -6.2713 -5.9887
ENERGY: 7000 1562.7224 2291.1822 3159.0744 0.0000 -175419.8716 20186.6840 663.0583 0.0000 30777.9930 -116779.1573 299.2453 -147557.1503 -116736.1125 298.7960 -44.5196 21.8615 502846.9728 2.4537 2.4262
ENERGY: 8000 1532.9242 2284.4869 3134.9688 0.0000 -175343.1950 20149.2137 672.2642 0.0000 30965.9497 -116603.3875 301.0728 -147569.3372 -116565.1519 299.9318 -15.0831 8.0710 502496.9233 0.1604 0.2347
ENERGY: 9000 1583.0554 2276.1628 3159.7740 0.0000 -175101.1841 19856.9707 640.9322 0.0000 31162.6690 -116421.6199 302.9854 -147584.2889 -116382.1148 301.0093 -102.5002 -40.0502 499613.1892 -18.3593 -18.6997
ENERGY: 10000 1621.0772 2293.4521 3147.7243 0.0000 -175565.1683 20107.4884 638.3405 0.0000 31014.8816 -116742.2043 301.5485 -147757.0859 -116701.8481 301.0905 -1.7331 40.8338 499557.6446 -1.6511 -1.7395
TCL: Setting parameter constraintScaling to 2.5
TCL: Running for 5000 steps
ETITLE: TS BOND ANGLE DIHED IMPRP ELECT VDW BOUNDARY MISC KINETIC TOTAL TEMP POTENTIAL TOTAL3 TEMPAVG PRESSURE GPRESSURE VOLUME PRESSAVG GPRESSAVG
ENERGY: 10000 1621.0772 2293.4521 3147.7243 0.0000 -175565.1683 20107.4884 319.1702 0.0000 31012.8157 -117063.4404 301.5284 -148076.2561 -117017.4320 301.5284 -69.5454 -29.3946 499557.6446 -69.5454 -29.3946
ENERGY: 11000 1613.9595 2356.2981 3179.9362 0.0000 -175043.6246 19943.0025 540.0140 0.0000 30667.1927 -116743.2215 298.1681 -147410.4143 -116690.7031 300.0214 25.6942 -7.9651 499860.9143 2.9514 3.3057
ENERGY: 12000 1662.8971 2378.2198 3161.3789 0.0000 -175739.1083 20190.0650 513.7703 0.0000 30616.3242 -117216.4530 297.6735 -147832.7772 -117166.4964 300.0778 -103.7812 13.2530 499362.1359 -6.4573 -6.2332
ENERGY: 13000 1728.2247 2383.0579 3140.4105 0.0000 -175696.9036 20004.8801 507.7285 0.0000 30952.9331 -116979.6687 300.9462 -147932.6018 -116941.5912 299.6922 -60.8952 -16.7974 499487.6973 -10.0749 -9.3646
ENERGY: 14000 1701.3681 2352.7772 3218.3655 0.0000 -175716.0052 19978.9194 500.4906 0.0000 30846.4688 -117117.6155 299.9111 -147964.0842 -117070.8350 299.6415 -139.6643 11.5904 499332.1722 -6.8392 -7.0435
ENERGY: 15000 1647.7640 2327.1975 3172.1766 0.0000 -175415.0750 19947.3306 504.2037 0.0000 30785.4650 -117030.9376 299.3180 -147816.4026 -116979.3384 300.2668 -43.3919 -18.0032 500850.2613 4.9555 5.2266
TCL: Setting parameter constraintScaling to 1.25
TCL: Running for 5000 steps
ETITLE: TS BOND ANGLE DIHED IMPRP ELECT VDW BOUNDARY MISC KINETIC TOTAL TEMP POTENTIAL TOTAL3 TEMPAVG PRESSURE GPRESSURE VOLUME PRESSAVG GPRESSAVG
ENERGY: 15000 1647.7640 2327.1975 3172.1766 0.0000 -175415.0750 19947.3306 252.1018 0.0000 30783.4062 -117285.0983 299.2980 -148068.5045 -117236.9896 299.2980 -97.9896 -69.1065 500850.2613 -97.9896 -69.1065
ENERGY: 16000 1668.1144 2405.5711 3190.9598 0.0000 -175429.1311 20151.6014 389.5169 0.0000 30709.5316 -116913.8360 298.5797 -147623.3676 -116860.0117 300.4185 -10.6347 14.4642 500604.9280 -7.3814 -6.8948
ENERGY: 17000 1635.2254 2387.2665 3189.3686 0.0000 -176034.4261 20189.2690 380.8494 0.0000 30636.2482 -117616.1989 297.8672 -148252.4471 -117575.7354 298.7065 -119.6814 -68.0259 499458.8908 -10.0225 -10.0967
ENERGY: 18000 1615.0278 2438.3437 3175.4996 0.0000 -175997.8957 20038.7475 406.5305 0.0000 30790.7484 -117532.9982 299.3694 -148323.7466 -117483.2804 299.7763 -2.6991 17.6993 497355.1606 -9.7828 -10.5689
ENERGY: 19000 1638.7779 2419.7266 3190.6249 0.0000 -175654.5820 20078.6327 416.7702 0.0000 30866.3640 -117043.6857 300.1045 -147910.0497 -116999.6790 300.0134 -13.9499 7.9584 497656.2872 -0.7411 -1.2278
ENERGY: 20000 1609.3029 2341.3706 3164.5695 0.0000 -175367.3381 19916.3540 412.1722 0.0000 30733.2956 -117190.2733 298.8108 -147923.5690 -117140.5834 299.1115 101.6126 113.4144 498872.7633 3.0255 2.9769
TCL: Setting parameter constraintScaling to 0.625
TCL: Running for 5000 steps
ETITLE: TS BOND ANGLE DIHED IMPRP ELECT VDW BOUNDARY MISC KINETIC TOTAL TEMP POTENTIAL TOTAL3 TEMPAVG PRESSURE GPRESSURE VOLUME PRESSAVG GPRESSAVG
ENERGY: 20000 1609.3029 2341.3706 3164.5695 0.0000 -175367.3381 19916.3540 206.0861 0.0000 30731.2251 -117398.4300 298.7906 -148129.6550 -117354.4323 298.7906 32.2291 38.4092 498872.7633 32.2291 38.4092
ENERGY: 21000 1628.1168 2381.0306 3187.0698 0.0000 -175876.5965 20151.0202 314.0889 0.0000 30919.8186 -117295.4517 300.6243 -148215.2703 -117258.9893 299.3214 -40.2251 16.4145 498951.7726 2.8427 2.7640
ENERGY: 22000 1710.5413 2379.6260 3195.2796 0.0000 -175701.8956 20021.7922 312.5879 0.0000 31173.0295 -116909.0391 303.0862 -148082.0686 -116859.6429 300.6893 -59.6654 -94.2780 497859.6216 0.9470 1.1829
ENERGY: 23000 1617.4577 2338.9889 3185.0511 0.0000 -175657.6871 20140.5828 309.5777 0.0000 30796.7374 -117269.2915 299.4276 -148066.0289 -117216.6525 299.9482 32.3994 6.2448 498461.8329 8.2354 7.7413
ENERGY: 24000 1659.3872 2380.9458 3199.2425 0.0000 -175867.2579 20270.5476 327.4470 0.0000 30904.3280 -117125.3598 300.4737 -148029.6878 -117075.6561 299.6234 -56.5570 12.7677 498688.8324 -3.3596 -3.1111
ENERGY: 25000 1599.4739 2386.6953 3214.6384 0.0000 -175368.2687 19872.1411 323.2789 0.0000 30670.3788 -117301.6624 298.1990 -147972.0412 -117257.8182 299.6574 -87.6347 -10.8653 498172.0618 1.4177 1.5060
TCL: Setting parameter constraintScaling to 0.3125
TCL: Running for 5000 steps
ETITLE: TS BOND ANGLE DIHED IMPRP ELECT VDW BOUNDARY MISC KINETIC TOTAL TEMP POTENTIAL TOTAL3 TEMPAVG PRESSURE GPRESSURE VOLUME PRESSAVG GPRESSAVG
ENERGY: 25000 1599.4739 2386.6953 3214.6384 0.0000 -175368.2687 19872.1411 161.6394 0.0000 30668.3529 -117465.3277 298.1793 -148133.6806 -117422.7147 298.1793 -112.0281 -52.0254 498172.0618 -112.0281 -52.0254
ENERGY: 26000 1677.8578 2402.9278 3231.3699 0.0000 -175762.1253 20154.8770 259.3767 0.0000 30616.0658 -117419.6504 297.6710 -148035.7161 -117375.3477 299.6016 49.5058 53.6581 497048.2609 -4.3052 -4.1078
ENERGY: 27000 1622.2378 2459.7368 3173.5024 0.0000 -175894.0410 20122.8914 250.1665 0.0000 30692.0244 -117573.4818 298.4095 -148265.5061 -117527.8607 299.8002 -11.0671 -27.2397 498779.8897 5.7127 5.6879
ENERGY: 28000 1581.1969 2375.7342 3221.0046 0.0000 -175558.9624 19910.1148 244.5115 0.0000 30888.7604 -117337.6400 300.3223 -148226.4004 -117295.7384 300.2710 -29.4588 20.2017 497351.3715 -10.7061 -10.9371
ENERGY: 29000 1690.9460 2403.6241 3189.5034 0.0000 -175645.0793 20047.1599 251.7728 0.0000 30660.8844 -117401.1889 298.1067 -148062.0733 -117364.2142 299.4381 47.2224 56.8694 498023.9082 7.7251 7.4446
ENERGY: 30000 1565.1247 2376.7254 3248.5908 0.0000 -175394.4884 19933.9163 251.1105 0.0000 31033.1636 -116985.8572 301.7263 -148019.0208 -116943.0366 300.4797 -91.8584 23.7417 498033.6675 -5.6729 -5.1035
TCL: Setting parameter constraintScaling to 0.15625
TCL: Running for 5000 steps
ETITLE: TS BOND ANGLE DIHED IMPRP ELECT VDW BOUNDARY MISC KINETIC TOTAL TEMP POTENTIAL TOTAL3 TEMPAVG PRESSURE GPRESSURE VOLUME PRESSAVG GPRESSAVG
ENERGY: 30000 1565.1247 2376.7254 3248.5908 0.0000 -175394.4884 19933.9163 125.5553 0.0000 31031.1197 -117113.4563 301.7064 -148144.5760 -117070.0087 301.7064 -113.3994 9.3924 498033.6675 -113.3994 9.3924
ENERGY: 31000 1633.0453 2341.0341 3274.4261 0.0000 -175881.9153 20197.4696 175.2777 0.0000 30817.1858 -117443.4768 299.6264 -148260.6626 -117411.3419 300.4046 58.2041 35.2892 498016.5245 -1.8020 -1.9990
ENERGY: 32000 1660.8924 2412.2681 3241.6237 0.0000 -175429.3557 20009.0494 195.2533 0.0000 30812.5741 -117097.6946 299.5816 -147910.2687 -117060.6865 300.9115 -49.4833 40.8418 499157.6005 5.8041 5.6551
ENERGY: 33000 1653.5756 2432.5328 3168.2865 0.0000 -176033.0786 20171.7632 191.4080 0.0000 31046.2606 -117369.2519 301.8536 -148415.5125 -117316.3212 299.9147 -18.4627 1.9235 496097.1878 -11.1256 -11.1938
ENERGY: 34000 1669.7668 2384.4761 3212.4167 0.0000 -175852.1427 20179.9017 205.7375 0.0000 30853.2133 -117346.6308 299.9767 -148199.8440 -117301.4306 300.5208 48.8132 -1.0077 498695.8912 11.1522 12.0209
ENERGY: 35000 1633.6014 2462.5132 3238.0416 0.0000 -175981.9360 20068.9038 198.6214 0.0000 30968.2021 -117412.0526 301.0947 -148380.2547 -117367.6182 300.3066 23.5489 82.5700 497459.0118 10.4261 10.4909
TCL: Setting parameter constraintScaling to 0.078125
TCL: Running for 5000 steps
ETITLE: TS BOND ANGLE DIHED IMPRP ELECT VDW BOUNDARY MISC KINETIC TOTAL TEMP POTENTIAL TOTAL3 TEMPAVG PRESSURE GPRESSURE VOLUME PRESSAVG GPRESSAVG
ENERGY: 35000 1633.6014 2462.5132 3238.0416 0.0000 -175981.9360 20068.9038 99.3107 0.0000 30966.1376 -117513.4278 301.0746 -148479.5654 -117466.9551 301.0746 24.4888 78.8577 497459.0118 24.4888 78.8577
ENERGY: 36000 1688.4809 2401.4337 3197.5245 0.0000 -175611.9800 19953.8267 139.7043 0.0000 30866.7813 -117364.2286 300.1086 -148231.0099 -117323.4924 300.6146 -157.3938 -89.2503 497003.5652 3.3966 2.9091
ENERGY: 37000 1692.0800 2363.0797 3175.2003 0.0000 -175370.3830 20020.0772 150.5869 0.0000 30685.9355 -117283.4234 298.3503 -147969.3588 -117241.1927 300.0339 -78.0956 -58.2337 497702.5228 -10.2289 -10.2923
ENERGY: 38000 1697.6252 2474.2988 3184.3094 0.0000 -175438.6437 20024.7218 159.9910 0.0000 30817.8857 -117079.8118 299.6332 -147897.6974 -117027.4247 300.4543 -38.1743 -28.0875 497508.0147 -15.1649 -15.1057
ENERGY: 39000 1625.3725 2435.3905 3229.6064 0.0000 -176043.1218 20048.8177 164.7300 0.0000 30840.0637 -117699.1410 299.8488 -148539.2047 -117651.4937 300.6920 6.0396 -39.8592 497822.9498 7.1765 7.2441
ENERGY: 40000 1697.4982 2384.1218 3159.9541 0.0000 -176276.5625 20307.7141 165.5873 0.0000 30694.7588 -117866.9281 298.4361 -148561.6870 -117807.8181 299.0803 -19.5656 39.7254 497347.3137 3.2899 3.8208
TCL: Setting parameter constraintScaling to 0.0390625
TCL: Running for 5000 steps
ETITLE: TS BOND ANGLE DIHED IMPRP ELECT VDW BOUNDARY MISC KINETIC TOTAL TEMP POTENTIAL TOTAL3 TEMPAVG PRESSURE GPRESSURE VOLUME PRESSAVG GPRESSAVG
ENERGY: 40000 1697.4982 2384.1218 3159.9541 0.0000 -176276.5625 20307.7141 82.7937 0.0000 30692.6826 -117951.7980 298.4159 -148644.4806 -117907.6494 298.4159 -43.9705 16.7960 497347.3137 -43.9705 16.7960
ENERGY: 41000 1619.0583 2415.2258 3221.7585 0.0000 -175920.9937 20080.6987 111.7792 0.0000 30768.5137 -117703.9594 299.1532 -148472.4731 -117662.6931 299.4359 131.4622 56.3835 497195.0226 -11.7250 -11.5296
ENERGY: 42000 1650.9909 2350.2852 3206.1119 0.0000 -176153.8827 20083.1820 122.7256 0.0000 31056.3436 -117684.2436 301.9517 -148740.5872 -117640.0201 300.5002 -65.6523 -26.1738 497863.9656 -0.9382 -0.8441
ENERGY: 43000 1679.9091 2354.6103 3251.9141 0.0000 -176066.2285 20079.3534 128.9262 0.0000 30673.5978 -117897.9176 298.2303 -148571.5154 -117857.3061 299.8807 -43.7540 -8.3032 496335.1730 -2.7958 -2.4042
ENERGY: 44000 1632.7672 2415.8049 3205.8270 0.0000 -175975.8927 20050.4572 124.5023 0.0000 30741.5709 -117804.9632 298.8912 -148546.5341 -117756.5385 300.0517 -115.9794 13.5593 496034.9498 -3.6528 -3.3928
ENERGY: 45000 1671.1860 2411.4593 3200.7010 0.0000 -176133.3204 20000.5788 127.3814 0.0000 30811.8031 -117910.2108 299.5741 -148722.0139 -117857.1901 299.8636 -58.2225 -119.4841 496737.9456 6.2976 6.0083
TCL: Setting parameter constraintScaling to 0.01953125
TCL: Running for 5000 steps
ETITLE: TS BOND ANGLE DIHED IMPRP ELECT VDW BOUNDARY MISC KINETIC TOTAL TEMP POTENTIAL TOTAL3 TEMPAVG PRESSURE GPRESSURE VOLUME PRESSAVG GPRESSAVG
ENERGY: 45000 1671.1860 2411.4593 3200.7010 0.0000 -176133.3204 20000.5788 63.6907 0.0000 30809.7627 -117975.9420 299.5542 -148785.7046 -117934.0689 299.5542 -67.9883 -122.9581 496737.9456 -67.9883 -122.9581
ENERGY: 46000 1672.3859 2396.1589 3212.2827 0.0000 -175792.1504 19970.5901 72.5105 0.0000 30833.5430 -117634.6793 299.7854 -148468.2224 -117594.1982 299.5692 -51.8051 44.8242 495583.7792 0.5157 -0.2491
ENERGY: 47000 1672.2497 2458.1689 3185.7224 0.0000 -175783.9969 20082.3235 80.9408 0.0000 30780.1933 -117524.3984 299.2667 -148304.5917 -117485.0034 300.3895 -167.8698 -82.6831 498020.3997 10.9502 10.9994
ENERGY: 48000 1612.9149 2439.1197 3202.0535 0.0000 -175725.6659 19947.5914 81.9756 0.0000 30917.1716 -117524.8392 300.5985 -148442.0108 -117479.6751 300.1982 -54.7276 6.6896 497483.6274 3.8802 3.3286
ENERGY: 49000 1615.9328 2356.8049 3227.4059 0.0000 -175882.7357 19986.1499 89.7877 0.0000 30753.6317 -117853.0229 299.0085 -148606.6545 -117800.5525 299.5282 -54.7035 -40.0620 498562.2867 4.5677 4.4335
ENERGY: 50000 1641.6281 2373.6926 3244.0234 0.0000 -175561.7127 19814.1675 87.3418 0.0000 30657.4546 -117743.4046 298.0734 -148400.8592 -117702.7688 298.8012 -25.9993 -7.9259 497376.1319 4.1237 4.1406
TCL: Setting parameter constraintScaling to 0
TCL: Running for 5000 steps
ETITLE: TS BOND ANGLE DIHED IMPRP ELECT VDW BOUNDARY MISC KINETIC TOTAL TEMP POTENTIAL TOTAL3 TEMPAVG PRESSURE GPRESSURE VOLUME PRESSAVG GPRESSAVG
ENERGY: 50000 1641.6281 2373.6926 3244.0234 0.0000 -175561.7127 19814.1675 0.0000 0.0000 30655.3970 -117832.8041 298.0534 -148488.2010 -117791.4500 298.0534 -48.7398 -29.0103 497376.1319 -48.7398 -29.0103
ENERGY: 51000 1624.5221 2437.2965 3199.7195 0.0000 -175829.1019 20101.5449 0.0000 0.0000 30783.0164 -117683.0026 299.2942 -148466.0190 -117638.4526 299.4078 -31.0855 76.8769 497019.9961 4.1463 4.5676
ENERGY: 52000 1610.8702 2392.8361 3170.2970 0.0000 -175715.2049 19889.5478 0.0000 0.0000 30798.7929 -117852.8610 299.4476 -148651.6539 -117807.0584 298.6467 -33.2780 45.1601 494708.0089 -12.6432 -12.6064
ENERGY: 53000 1687.5659 2471.1093 3189.3181 0.0000 -176213.6000 20073.8946 0.0000 0.0000 31076.3361 -117715.3760 302.1460 -148791.7122 -117665.1789 301.1788 -124.2915 -30.1406 495581.7191 5.8449 5.6827
ENERGY: 54000 1651.4676 2373.2065 3170.6537 0.0000 -176026.4736 20111.7274 0.0000 0.0000 30873.5329 -117845.8855 300.1742 -148719.4184 -117809.4972 300.4187 -75.6846 -33.1850 496911.5645 8.2114 8.1228
ENERGY: 55000 1663.7850 2384.7707 3188.4345 0.0000 -176184.9856 19984.8597 0.0000 0.0000 30890.6360 -118072.4995 300.3405 -148963.1355 -118024.0907 299.9259 -87.6080 -78.3027 494828.1189 -16.8588 -16.5253
