Info: SIMULATION PARAMETERS:
Info: TIMESTEP               2
Info: NUMBER OF STEPS        0
Info: STEPS PER CYCLE        10
Info: PERIODIC CELL BASIS 1  72.449 0 0
Info: PERIODIC CELL BASIS 2  0 93.247 0
Info: PERIODIC CELL BASIS 3  0 0 79.185
Info: PERIODIC CELL CENTER   -0.248 -0.156 -0.047
Info: WRAPPING WATERS AROUND PERIODIC BOUNDARIES ON OUTPUT.
Info: WRAPPING ALL CLUSTERS AROUND PERIODIC BOUNDARIES ON OUTPUT.
Info: FIRST LDB TIMESTEP     50
Info: LAST LDB TIMESTEP     -1
Info: HOM BACKGROUND SCALING 1
Info: PME BACKGROUND SCALING 1
Info: MIN ATOMS PER PATCH    40
Info: INITIAL TEMPERATURE    0
Info: CENTER OF MASS MOVING INITIALLY? NO
Info: DIELECTRIC             1
Info: EXCLUDE                SCALED ONE-FOUR
Info: 1-4 ELECTROSTATICS SCALED BY 0.833333
Info: MODIFIED 1-4 VDW PARAMETERS WILL BE USED
Info: NO DCD TRAJECTORY OUTPUT
Info: NO EXTENDED SYSTEM TRAJECTORY OUTPUT
Info: NO VELOCITY DCD OUTPUT
Info: NO FORCE DCD OUTPUT
Info: OUTPUT FILENAME        ../replicas/rep35/equilibration/eq0
Info: NO RESTART FILE
Info: SWITCHING ACTIVE
Info: SWITCHING ON           10
Info: SWITCHING OFF          12
Info: PAIRLIST DISTANCE      13.5
Info: PAIRLIST SHRINK RATE   0.01
Info: PAIRLIST GROW RATE     0.01
Info: PAIRLIST TRIGGER       0.3
Info: PAIRLISTS PER CYCLE    2
Info: PAIRLISTS ENABLED
Info: MARGIN                 0
Info: HYDROGEN GROUP CUTOFF  2.5
Info: PATCH DIMENSION        16
Info: ENERGY OUTPUT STEPS    500
Info: CROSSTERM ENERGY INCLUDED IN DIHEDRAL
Info: TIMING OUTPUT STEPS    5000
Info: PRESSURE OUTPUT STEPS  500
Info: HARMONIC CONSTRAINTS ACTIVE
Info: HARMONIC CONS EXP      2
Info: HARMONIC CONS SCALING  10
Info: CONJUGATE GRADIENT MINIMIZATION ACTIVE
Info: LINE MINIMIZATION GOAL = 0.001
Info: BABY STEP SIZE = 0.01
Info: TINY STEP SIZE = 1e-06
Info: PARTICLE MESH EWALD (PME) ACTIVE
Info: PME TOLERANCE               1e-06
Info: PME EWALD COEFFICIENT       0.257952
Info: PME INTERPOLATION ORDER     4
Info: PME GRID DIMENSIONS         80 96 80
Info: PME MAXIMUM GRID SPACING    1
Info: FULL ELECTROSTATIC EVALUATION FREQUENCY      2
Info: USING VERLET I (r-RESPA) MTS SCHEME.
Info: C1 SPLITTING OF LONG RANGE ELECTROSTATICS
Info: PLACING ATOMS IN PATCHES BY HYDROGEN GROUPS
Info: RIGID BONDS TO HYDROGEN : ALL
Info:         ERROR TOLERANCE : 1e-05
Info:          MAX ITERATIONS : 100
Info: RIGID WATER USING SETTLE ALGORITHM
Info: RANDOM NUMBER SEED     1503691990
Info: USE HYDROGEN BONDS?    NO
Info: Using AMBER format force field!
Info: AMBER PARM FILE        ../build/complex.top
Info: COORDINATE PDB         ../build/complex.pdb
Info: Exclusions in PARM file will be ignored!
Info: SCNB (VDW SCALING)     2
Info: USING ARITHMETIC MEAN TO COMBINE L-J SIGMA PARAMETERS
Info: SUMMARY OF PARAMETERS:
Info: 71 BONDS
Info: 145 ANGLES
Info: 76 DIHEDRAL
Info: 0 IMPROPER
Info: 0 CROSSTERM
Info: 0 VDW
Info: 190 VDW_PAIRS
Info: 0 NBTHOLE_PAIRS
Info: STRUCTURE SUMMARY:
Info: 49394 ATOMS
Info: 49448 BONDS
Info: 8698 ANGLES
Info: 18780 DIHEDRALS
Info: 0 IMPROPERS
Info: 0 CROSSTERMS
Info: 0 EXCLUSIONS
Info: 2336 CONSTRAINTS
Info: 47058 RIGID BONDS
Info: 101124 DEGREES OF FREEDOM
Info: 17225 HYDROGEN GROUPS
Info: 4 ATOMS IN LARGEST HYDROGEN GROUP
Info: 17225 MIGRATION GROUPS
Info: 4 ATOMS IN LARGEST MIGRATION GROUP
Info: TOTAL MASS = 301478 amu
Info: TOTAL CHARGE = 1.00115e-05 e
Info: MASS DENSITY = 0.935846 g/cm^3
Info: ATOM DENSITY = 0.0923345 atoms/A^3
Info: ADDED 70656 IMPLICIT EXCLUSIONS
Info: NONBONDED TABLE R-SQUARED SPACING: 0.0625
Info: NONBONDED TABLE SIZE: 769 POINTS
Info: REMOVING COM VELOCITY 0 0 0
TCL: Minimizing for 100 steps
ETITLE: TS BOND ANGLE DIHED IMPRP ELECT VDW BOUNDARY MISC KINETIC TOTAL TEMP POTENTIAL TOTAL3 TEMPAVG PRESSURE GPRESSURE VOLUME PRESSAVG GPRESSAVG
ENERGY: 0 155.4176 1012.2698 2855.7272 0.0000 -154496.7912 207729.2052 0.0468 0.0000 0.0000 57255.8754 0.0000 57255.8754 57255.8754 0.0000 116350.2532 86546.1670 534946.2959 116350.2532 86546.1670
ENERGY: 20 304.7561 935.7913 2893.4663 0.0000 -158672.9414 17936.6590 143.9455 0.0000 0.0000 -136458.3232 0.0000 -136458.3232 -136458.3232 0.0000 16523.9383 -239.4563 534946.2959 16523.9383 -239.4563
ENERGY: 40 198.7474 799.5732 2896.9273 0.0000 -162811.4527 16417.9538 221.3031 0.0000 0.0000 -142276.9479 0.0000 -142276.9479 -142276.9479 0.0000 15011.2704 -2135.4698 534946.2959 15011.2704 -2135.4698
ENERGY: 60 130.5279 715.3439 2898.2166 0.0000 -167496.1601 15446.7534 315.2797 0.0000 0.0000 -147990.0385 0.0000 -147990.0385 -147990.0385 0.0000 13793.8830 -3799.3996 534946.2959 13793.8830 -3799.3996
ENERGY: 80 431.2708 765.6302 2904.3789 0.0000 -169937.5390 15121.1513 372.0125 0.0000 0.0000 -150343.0955 0.0000 -150343.0955 -150343.0955 0.0000 13270.3282 -4577.2479 534946.2959 13270.3282 -4577.2479
ENERGY: 100 119.3830 710.0597 2905.2593 0.0000 -171259.7118 14991.7871 387.3614 0.0000 0.0000 -152145.8614 0.0000 -152145.8614 -152145.8614 0.0000 13056.2653 -4908.1719 534946.2959 13056.2653 -4908.1719
TCL: Setting parameter constraintScaling to 5.0
TCL: Minimizing for 100 steps
ETITLE: TS BOND ANGLE DIHED IMPRP ELECT VDW BOUNDARY MISC KINETIC TOTAL TEMP POTENTIAL TOTAL3 TEMPAVG PRESSURE GPRESSURE VOLUME PRESSAVG GPRESSAVG
ENERGY: 100 119.3830 710.0597 2905.2593 0.0000 -171259.7118 14991.7871 193.6807 0.0000 0.0000 -152339.5420 0.0000 -152339.5420 -152339.5420 0.0000 13672.7715 -23021.8182 534946.2959 13672.7715 -23021.8182
ENERGY: 120 108.8774 687.5818 2912.9264 0.0000 -172865.8933 14798.2704 281.1916 0.0000 0.0000 -154077.0457 0.0000 -154077.0457 -154077.0457 0.0000 13218.2543 -4906.0185 534946.2959 13218.2543 -4906.0185
ENERGY: 140 309.3430 708.8520 2913.8024 0.0000 -174236.8620 14731.4716 326.6450 0.0000 0.0000 -155246.7480 0.0000 -155246.7480 -155246.7480 0.0000 12971.5083 -5303.2855 534946.2959 12971.5083 -5303.2855
ENERGY: 160 265.6790 683.2453 2923.1995 0.0000 -176277.8404 14757.4847 382.9828 0.0000 0.0000 -157265.2491 0.0000 -157265.2491 -157265.2491 0.0000 12740.6404 -5742.0368 534946.2959 12740.6404 -5742.0368
ENERGY: 180 268.6059 744.1037 2928.5659 0.0000 -178997.3079 15023.8326 473.4014 0.0000 0.0000 -159558.7983 0.0000 -159558.7983 -159558.7983 0.0000 12521.5003 -6222.6708 534946.2959 12521.5003 -6222.6708
ENERGY: 200 239.1947 694.0558 2941.3815 0.0000 -181557.7041 15587.3872 546.2933 0.0000 0.0000 -161549.3916 0.0000 -161549.3916 -161549.3916 0.0000 12582.6704 -6419.1586 534946.2959 12582.6704 -6419.1586
TCL: Setting parameter constraintScaling to 2.5
TCL: Minimizing for 100 steps
ETITLE: TS BOND ANGLE DIHED IMPRP ELECT VDW BOUNDARY MISC KINETIC TOTAL TEMP POTENTIAL TOTAL3 TEMPAVG PRESSURE GPRESSURE VOLUME PRESSAVG GPRESSAVG
ENERGY: 200 239.1947 694.0558 2941.3815 0.0000 -181557.7041 15587.3872 273.1467 0.0000 0.0000 -161822.5382 0.0000 -161822.5382 -161822.5382 0.0000 13229.6132 -25650.0843 534946.2959 13229.6132 -25650.0843
ENERGY: 220 245.5851 676.9074 2932.9960 0.0000 -182074.9968 15472.7027 337.2371 0.0000 0.0000 -162409.5685 0.0000 -162409.5685 -162409.5685 0.0000 12973.3184 -6082.9645 534946.2959 12973.3184 -6082.9645
ENERGY: 240 154.2085 693.7601 2928.7207 0.0000 -182682.1220 15529.8582 347.0763 0.0000 0.0000 -163028.4982 0.0000 -163028.4982 -163028.4982 0.0000 13033.4375 -6126.4948 534946.2959 13033.4375 -6126.4948
ENERGY: 260 178.9999 683.2337 2920.1757 0.0000 -184290.7415 15885.7876 399.1187 0.0000 0.0000 -164223.4258 0.0000 -164223.4258 -164223.4258 0.0000 13053.4620 -6270.0925 534946.2959 13053.4620 -6270.0925
ENERGY: 280 169.1809 700.7035 2917.5815 0.0000 -185418.7825 16226.8101 454.9380 0.0000 0.0000 -164949.5686 0.0000 -164949.5686 -164949.5686 0.0000 13142.1821 -6334.4187 534946.2959 13142.1821 -6334.4187
ENERGY: 300 126.6832 639.4602 2916.2457 0.0000 -186089.9031 16443.6003 481.3112 0.0000 0.0000 -165482.6024 0.0000 -165482.6024 -165482.6024 0.0000 13206.7329 -6338.2344 534946.2959 13206.7329 -6338.2344
TCL: Setting parameter constraintScaling to 1.25
TCL: Minimizing for 100 steps
ETITLE: TS BOND ANGLE DIHED IMPRP ELECT VDW BOUNDARY MISC KINETIC TOTAL TEMP POTENTIAL TOTAL3 TEMPAVG PRESSURE GPRESSURE VOLUME PRESSAVG GPRESSAVG
ENERGY: 300 126.6832 639.4602 2916.2457 0.0000 -186089.9031 16443.6003 240.6556 0.0000 0.0000 -165723.2580 0.0000 -165723.2580 -165723.2580 0.0000 13655.0286 -26347.7184 534946.2959 13655.0286 -26347.7184
ENERGY: 320 265.6665 657.2318 2911.4771 0.0000 -186847.4802 16631.6704 286.4455 0.0000 0.0000 -166094.9889 0.0000 -166094.9889 -166094.9889 0.0000 13611.0113 -6004.0004 534946.2959 13611.0113 -6004.0004
ENERGY: 340 243.1201 646.4526 2912.3290 0.0000 -187593.2015 16883.8644 305.0977 0.0000 0.0000 -166602.3377 0.0000 -166602.3377 -166602.3377 0.0000 13614.8272 -6046.0717 534946.2959 13614.8272 -6046.0717
ENERGY: 360 127.2683 660.4532 2906.7959 0.0000 -188911.9102 17343.0911 349.3380 0.0000 0.0000 -167524.9636 0.0000 -167524.9636 -167524.9636 0.0000 13902.4385 -5972.4866 534946.2959 13902.4385 -5972.4866
ENERGY: 380 198.0506 647.4663 2901.1350 0.0000 -190399.3043 17931.0131 400.7292 0.0000 0.0000 -168320.9101 0.0000 -168320.9101 -168320.9101 0.0000 14024.5658 -5974.2647 534946.2959 14024.5658 -5974.2647
ENERGY: 400 134.4524 643.1073 2899.5245 0.0000 -190504.0118 17948.7562 399.2930 0.0000 0.0000 -168478.8783 0.0000 -168478.8783 -168478.8783 0.0000 14128.4224 -5922.2130 534946.2959 14128.4224 -5922.2130
TCL: Setting parameter constraintScaling to 0.625
TCL: Minimizing for 100 steps
ETITLE: TS BOND ANGLE DIHED IMPRP ELECT VDW BOUNDARY MISC KINETIC TOTAL TEMP POTENTIAL TOTAL3 TEMPAVG PRESSURE GPRESSURE VOLUME PRESSAVG GPRESSAVG
ENERGY: 400 134.4524 643.1073 2899.5245 0.0000 -190504.0118 17948.7562 199.6465 0.0000 0.0000 -168678.5248 0.0000 -168678.5248 -168678.5248 0.0000 14428.8932 -26602.6315 534946.2959 14428.8932 -26602.6315
ENERGY: 420 162.1290 637.6627 2897.7709 0.0000 -190885.3171 18034.0369 220.5752 0.0000 0.0000 -168933.1425 0.0000 -168933.1425 -168933.1425 0.0000 14291.3050 -5751.0896 534946.2959 14291.3050 -5751.0896
ENERGY: 440 231.3530 650.5519 2892.4289 0.0000 -191356.7276 18177.6676 233.7812 0.0000 0.0000 -169170.9448 0.0000 -169170.9448 -169170.9448 0.0000 14410.0345 -5719.1234 534946.2959 14410.0345 -5719.1234
ENERGY: 460 145.0201 649.1232 2890.7787 0.0000 -191974.7291 18387.5334 251.7702 0.0000 0.0000 -169650.5035 0.0000 -169650.5035 -169650.5035 0.0000 14476.5881 -5714.2498 534946.2959 14476.5881 -5714.2498
ENERGY: 480 169.4336 638.2612 2883.0009 0.0000 -193104.1968 18806.7223 283.8984 0.0000 0.0000 -170322.8805 0.0000 -170322.8805 -170322.8805 0.0000 14638.6264 -5681.6783 534946.2959 14638.6264 -5681.6783
ENERGY: 500 155.5103 638.1782 2877.5520 0.0000 -194253.3269 19282.1644 314.5022 0.0000 0.0000 -170985.4198 0.0000 -170985.4198 -170985.4198 0.0000 14865.6647 -5588.4504 534946.2959 14865.6647 -5588.4504
TCL: Setting parameter constraintScaling to 0.3125
TCL: Minimizing for 100 steps
ETITLE: TS BOND ANGLE DIHED IMPRP ELECT VDW BOUNDARY MISC KINETIC TOTAL TEMP POTENTIAL TOTAL3 TEMPAVG PRESSURE GPRESSURE VOLUME PRESSAVG GPRESSAVG
ENERGY: 500 155.5103 638.1782 2877.5520 0.0000 -194253.3269 19282.1644 157.2511 0.0000 0.0000 -171142.6709 0.0000 -171142.6709 -171142.6709 0.0000 15064.3913 -26851.0896 534946.2959 15064.3913 -26851.0896
ENERGY: 520 193.2141 657.6091 2880.0569 0.0000 -194563.6757 19381.9397 169.4788 0.0000 0.0000 -171281.3771 0.0000 -171281.3771 -171281.3771 0.0000 15023.3614 -5446.0250 534946.2959 15023.3614 -5446.0250
ENERGY: 540 333.4127 659.0862 2872.7908 0.0000 -194916.6725 19510.4151 173.9454 0.0000 0.0000 -171367.0222 0.0000 -171367.0222 -171367.0222 0.0000 15117.4232 -5399.2163 534946.2959 15117.4232 -5399.2163
ENERGY: 560 213.0379 655.8392 2874.1386 0.0000 -195526.1936 19719.0340 190.9285 0.0000 0.0000 -171873.2155 0.0000 -171873.2155 -171873.2155 0.0000 15195.1439 -5405.8520 534946.2959 15195.1439 -5405.8520
ENERGY: 580 150.6466 641.7793 2869.1245 0.0000 -195902.4709 19862.5222 198.5382 0.0000 0.0000 -172179.8602 0.0000 -172179.8602 -172179.8602 0.0000 15255.4448 -5374.6590 534946.2959 15255.4448 -5374.6590
ENERGY: 600 174.5019 651.4796 2864.1350 0.0000 -196415.7005 20061.9529 205.1837 0.0000 0.0000 -172458.4474 0.0000 -172458.4474 -172458.4474 0.0000 15355.4040 -5337.4155 534946.2959 15355.4040 -5337.4155
TCL: Setting parameter constraintScaling to 0.15625
TCL: Minimizing for 100 steps
ETITLE: TS BOND ANGLE DIHED IMPRP ELECT VDW BOUNDARY MISC KINETIC TOTAL TEMP POTENTIAL TOTAL3 TEMPAVG PRESSURE GPRESSURE VOLUME PRESSAVG GPRESSAVG
ENERGY: 600 174.5019 651.4796 2864.1350 0.0000 -196415.7005 20061.9529 102.5919 0.0000 0.0000 -172561.0393 0.0000 -172561.0393 -172561.0393 0.0000 15471.9524 -26954.0108 534946.2959 15471.9524 -26954.0108
ENERGY: 620 159.6455 655.1839 2868.8732 0.0000 -196706.3671 20147.4993 110.0348 0.0000 0.0000 -172765.1305 0.0000 -172765.1305 -172765.1305 0.0000 15484.3665 -5251.7520 534946.2959 15484.3665 -5251.7520
ENERGY: 640 202.4030 680.0511 2857.4695 0.0000 -197722.2893 20536.8085 124.8168 0.0000 0.0000 -173320.7405 0.0000 -173320.7405 -173320.7405 0.0000 15673.1844 -5180.8720 534946.2959 15673.1844 -5180.8720
ENERGY: 660 159.9277 665.0961 2864.0618 0.0000 -197900.1845 20590.6281 129.5225 0.0000 0.0000 -173490.9483 0.0000 -173490.9483 -173490.9483 0.0000 15646.3204 -5214.2594 534946.2959 15646.3204 -5214.2594
ENERGY: 680 170.7904 652.0645 2854.9966 0.0000 -198485.3647 20820.7611 133.3222 0.0000 0.0000 -173853.4298 0.0000 -173853.4298 -173853.4298 0.0000 15789.8868 -5138.9152 534946.2959 15789.8868 -5138.9152
ENERGY: 700 158.1366 661.7606 2849.4370 0.0000 -199476.3620 21195.2880 147.0539 0.0000 0.0000 -174464.6861 0.0000 -174464.6861 -174464.6861 0.0000 15976.8226 -5073.7457 534946.2959 15976.8226 -5073.7457
TCL: Setting parameter constraintScaling to 0.078125
TCL: Minimizing for 100 steps
ETITLE: TS BOND ANGLE DIHED IMPRP ELECT VDW BOUNDARY MISC KINETIC TOTAL TEMP POTENTIAL TOTAL3 TEMPAVG PRESSURE GPRESSURE VOLUME PRESSAVG GPRESSAVG
ENERGY: 700 158.1366 661.7606 2849.4370 0.0000 -199476.3620 21195.2880 73.5269 0.0000 0.0000 -174538.2130 0.0000 -174538.2130 -174538.2130 0.0000 16049.5728 -27105.7348 534946.2959 16049.5728 -27105.7348
ENERGY: 720 162.1486 646.7677 2843.3413 0.0000 -199579.2070 21239.2242 74.4654 0.0000 0.0000 -174613.2598 0.0000 -174613.2598 -174613.2598 0.0000 16043.5367 -5012.5723 534946.2959 16043.5367 -5012.5723
ENERGY: 740 249.0511 679.5262 2847.0696 0.0000 -200193.4526 21454.2232 81.7411 0.0000 0.0000 -174881.8414 0.0000 -174881.8414 -174881.8414 0.0000 16102.7868 -5021.1502 534946.2959 16102.7868 -5021.1502
ENERGY: 760 158.7826 654.1670 2837.5658 0.0000 -200561.8817 21590.9847 84.7282 0.0000 0.0000 -175235.6533 0.0000 -175235.6533 -175235.6533 0.0000 16224.1106 -4955.0567 534946.2959 16224.1106 -4955.0567
ENERGY: 780 217.0312 685.8772 2840.1020 0.0000 -201194.7440 21835.5861 89.2881 0.0000 0.0000 -175526.8594 0.0000 -175526.8594 -175526.8594 0.0000 16320.1898 -4937.6301 534946.2959 16320.1898 -4937.6301
ENERGY: 800 162.4372 650.2929 2828.5275 0.0000 -201873.2770 22113.3907 93.7369 0.0000 0.0000 -176024.8918 0.0000 -176024.8918 -176024.8918 0.0000 16488.7611 -4850.9195 534946.2959 16488.7611 -4850.9195
TCL: Setting parameter constraintScaling to 0.0390625
TCL: Minimizing for 100 steps
ETITLE: TS BOND ANGLE DIHED IMPRP ELECT VDW BOUNDARY MISC KINETIC TOTAL TEMP POTENTIAL TOTAL3 TEMPAVG PRESSURE GPRESSURE VOLUME PRESSAVG GPRESSAVG
ENERGY: 800 162.4372 650.2929 2828.5275 0.0000 -201873.2770 22113.3907 46.8684 0.0000 0.0000 -176071.7602 0.0000 -176071.7602 -176071.7602 0.0000 16530.9711 -27205.4609 534946.2959 16530.9711 -27205.4609
ENERGY: 820 268.6903 685.0533 2827.3639 0.0000 -202389.5636 22317.4357 51.0322 0.0000 0.0000 -176239.9882 0.0000 -176239.9882 -176239.9882 0.0000 16556.0018 -4824.2374 534946.2959 16556.0018 -4824.2374
ENERGY: 840 164.3189 656.3966 2823.8208 0.0000 -202600.6305 22396.4727 52.0933 0.0000 0.0000 -176507.5282 0.0000 -176507.5282 -176507.5282 0.0000 16646.9452 -4774.2971 534946.2959 16646.9452 -4774.2971
ENERGY: 860 173.2561 648.8658 2823.7543 0.0000 -203167.5725 22627.9176 53.2500 0.0000 0.0000 -176840.5287 0.0000 -176840.5287 -176840.5287 0.0000 16788.1320 -4694.3580 534946.2959 16788.1320 -4694.3580
ENERGY: 880 179.6523 672.6598 2821.7206 0.0000 -203778.4046 22894.6981 56.8562 0.0000 0.0000 -177152.8176 0.0000 -177152.8176 -177152.8176 0.0000 16924.3928 -4638.9519 534946.2959 16924.3928 -4638.9519
ENERGY: 900 169.7524 669.3674 2817.7848 0.0000 -204044.6787 23007.0376 58.8574 0.0000 0.0000 -177321.8792 0.0000 -177321.8792 -177321.8792 0.0000 16960.9912 -4631.1908 534946.2959 16960.9912 -4631.1908
TCL: Setting parameter constraintScaling to 0.01953125
TCL: Minimizing for 100 steps
ETITLE: TS BOND ANGLE DIHED IMPRP ELECT VDW BOUNDARY MISC KINETIC TOTAL TEMP POTENTIAL TOTAL3 TEMPAVG PRESSURE GPRESSURE VOLUME PRESSAVG GPRESSAVG
ENERGY: 900 169.7524 669.3674 2817.7848 0.0000 -204044.6787 23007.0376 29.4287 0.0000 0.0000 -177351.3079 0.0000 -177351.3079 -177351.3079 0.0000 16985.3523 -27267.5103 534946.2959 16985.3523 -27267.5103
ENERGY: 920 171.3318 666.1511 2813.9326 0.0000 -204276.7946 23106.6249 30.1043 0.0000 0.0000 -177488.6499 0.0000 -177488.6499 -177488.6499 0.0000 17051.7776 -4566.7364 534946.2959 17051.7776 -4566.7364
ENERGY: 940 227.4112 680.3812 2819.9654 0.0000 -204763.6527 23312.4718 31.6810 0.0000 0.0000 -177691.7420 0.0000 -177691.7420 -177691.7420 0.0000 17126.4796 -4551.1397 534946.2959 17126.4796 -4551.1397
ENERGY: 960 171.1413 658.7675 2809.4488 0.0000 -204942.1495 23393.9959 32.1449 0.0000 0.0000 -177876.6511 0.0000 -177876.6511 -177876.6511 0.0000 17182.2234 -4509.3847 534946.2959 17182.2234 -4509.3847
ENERGY: 980 183.3700 682.7840 2815.7803 0.0000 -205622.4948 23695.9256 34.5319 0.0000 0.0000 -178210.1030 0.0000 -178210.1030 -178210.1030 0.0000 17303.3608 -4469.3616 534946.2959 17303.3608 -4469.3616
ENERGY: 1000 162.0843 653.8816 2806.7183 0.0000 -205684.6098 23722.7518 34.4923 0.0000 0.0000 -178304.6815 0.0000 -178304.6815 -178304.6815 0.0000 17343.3603 -4435.8340 534946.2959 17343.3603 -4435.8340
TCL: Setting parameter constraintScaling to 0
TCL: Minimizing for 5000 steps
ETITLE: TS BOND ANGLE DIHED IMPRP ELECT VDW BOUNDARY MISC KINETIC TOTAL TEMP POTENTIAL TOTAL3 TEMPAVG PRESSURE GPRESSURE VOLUME PRESSAVG GPRESSAVG
ENERGY: 1000 162.0843 653.8816 2806.7183 0.0000 -205684.6098 23722.7518 0.0000 0.0000 0.0000 -178339.1738 0.0000 -178339.1738 -178339.1738 0.0000 17370.3240 -27272.6815 534946.2959 17370.3240 -27272.6815
ENERGY: 2000 243.5503 704.1408 2803.8547 0.0000 -214811.3733 27879.1624 0.0000 0.0000 0.0000 -183180.6650 0.0000 -183180.6650 -183180.6650 0.0000 19591.1191 -3225.5810 534946.2959 19591.1191 -3225.5810
ENERGY: 3000 167.3305 668.2080 2794.9111 0.0000 -217728.5267 29017.4505 0.0000 0.0000 0.0000 -185080.6266 0.0000 -185080.6266 -185080.6266 0.0000 20188.0771 -2915.4740 534946.2959 20188.0771 -2915.4740
ENERGY: 4000 167.1230 666.6907 2788.4254 0.0000 -218895.5545 29477.7518 0.0000 0.0000 0.0000 -185795.5637 0.0000 -185795.5637 -185795.5637 0.0000 20427.7091 -2799.9165 534946.2959 20427.7091 -2799.9165
ENERGY: 5000 166.0112 666.4584 2787.6949 0.0000 -219554.5213 29733.3235 0.0000 0.0000 0.0000 -186201.0333 0.0000 -186201.0333 -186201.0333 0.0000 20562.4616 -2718.8109 534946.2959 20562.4616 -2718.8109
ENERGY: 6000 165.8953 664.4980 2786.3877 0.0000 -219966.8925 29881.9099 0.0000 0.0000 0.0000 -186468.2015 0.0000 -186468.2015 -186468.2015 0.0000 20642.3925 -2685.9340 534946.2959 20642.3925 -2685.9340
