Info: SIMULATION PARAMETERS:
Info: TIMESTEP               1
Info: NUMBER OF STEPS        0
Info: STEPS PER CYCLE        10
Info: PERIODIC CELL BASIS 1  72.449 0 0
Info: PERIODIC CELL BASIS 2  0 93.247 0
Info: PERIODIC CELL BASIS 3  0 0 79.185
Info: PERIODIC CELL CENTER   -0.248 -0.156 -0.047
Info: WRAPPING WATERS AROUND PERIODIC BOUNDARIES ON OUTPUT.
Info: WRAPPING ALL CLUSTERS AROUND PERIODIC BOUNDARIES ON OUTPUT.
Info: FIRST LDB TIMESTEP     50
Info: LAST LDB TIMESTEP     -1
Info: HOM BACKGROUND SCALING 1
Info: PME BACKGROUND SCALING 1
Info: MIN ATOMS PER PATCH    40
Info: VELOCITY FILE          ../replicas/rep71/equilibration/eq1.vel
Info: CENTER OF MASS MOVING INITIALLY? NO
Info: DIELECTRIC             1
Info: EXCLUDE                SCALED ONE-FOUR
Info: 1-4 ELECTROSTATICS SCALED BY 0.833333
Info: MODIFIED 1-4 VDW PARAMETERS WILL BE USED
Info: DCD FILENAME           ../replicas/rep71/equilibration/eq2.dcd
Info: DCD FREQUENCY          5000
Info: DCD FIRST STEP         5000
Info: DCD FILE WILL CONTAIN UNIT CELL DATA
Info: XST FILENAME           ../replicas/rep71/equilibration/eq2.xst
Info: XST FREQUENCY          5000
Info: NO VELOCITY DCD OUTPUT
Info: NO FORCE DCD OUTPUT
Info: OUTPUT FILENAME        ../replicas/rep71/equilibration/eq2
Info: RESTART FILENAME       ../replicas/rep71/equilibration/eq2.restart
Info: RESTART FREQUENCY      5000
Info: BINARY RESTART FILES WILL BE USED
Info: SWITCHING ACTIVE
Info: SWITCHING ON           10
Info: SWITCHING OFF          12
Info: PAIRLIST DISTANCE      13.5
Info: PAIRLIST SHRINK RATE   0.01
Info: PAIRLIST GROW RATE     0.01
Info: PAIRLIST TRIGGER       0.3
Info: PAIRLISTS PER CYCLE    2
Info: PAIRLISTS ENABLED
Info: MARGIN                 0.48
Info: HYDROGEN GROUP CUTOFF  2.5
Info: PATCH DIMENSION        16.48
Info: ENERGY OUTPUT STEPS    500
Info: CROSSTERM ENERGY INCLUDED IN DIHEDRAL
Info: TIMING OUTPUT STEPS    5000
Info: PRESSURE OUTPUT STEPS  500
Info: HARMONIC CONSTRAINTS ACTIVE
Info: HARMONIC CONS EXP      2
Info: HARMONIC CONS SCALING  10
Info: LANGEVIN DYNAMICS ACTIVE
Info: LANGEVIN TEMPERATURE   300
Info: LANGEVIN USING BBK INTEGRATOR
Info: LANGEVIN DAMPING COEFFICIENT IS 5 INVERSE PS
Info: LANGEVIN DYNAMICS NOT APPLIED TO HYDROGENS
Info: BERENDSEN PRESSURE COUPLING ACTIVE
Info:     TARGET PRESSURE IS 1 BAR
Info:     COMPRESSIBILITY ESTIMATE IS 4.57e-05 BAR^(-1)
Info:     RELAXATION TIME IS 100 FS
Info:     APPLIED EVERY 2 STEPS
Info:     PRESSURE CONTROL IS GROUP-BASED
Info:       CELL FLUCTUATION IS ISOTROPIC
Info: PARTICLE MESH EWALD (PME) ACTIVE
Info: PME TOLERANCE               1e-06
Info: PME EWALD COEFFICIENT       0.257952
Info: PME INTERPOLATION ORDER     4
Info: PME GRID DIMENSIONS         80 96 80
Info: PME MAXIMUM GRID SPACING    1
Info: FULL ELECTROSTATIC EVALUATION FREQUENCY      2
Info: USING VERLET I (r-RESPA) MTS SCHEME.
Info: C1 SPLITTING OF LONG RANGE ELECTROSTATICS
Info: PLACING ATOMS IN PATCHES BY HYDROGEN GROUPS
Info: RIGID BONDS TO HYDROGEN : WATER
Info:         ERROR TOLERANCE : 1e-05
Info:          MAX ITERATIONS : 100
Info: RIGID WATER USING SETTLE ALGORITHM
Info: RANDOM NUMBER SEED     1503708404
Info: USE HYDROGEN BONDS?    NO
Info: Using AMBER format force field!
Info: AMBER PARM FILE        ../build/complex.top
Info: COORDINATE PDB         ../replicas/rep71/equilibration/eq1.coor
Info: Exclusions in PARM file will be ignored!
Info: SCNB (VDW SCALING)     2
Info: USING ARITHMETIC MEAN TO COMBINE L-J SIGMA PARAMETERS
Info: SUMMARY OF PARAMETERS:
Info: 71 BONDS
Info: 145 ANGLES
Info:   145 HARMONIC
Info:   0 COSINE-BASED
Info: 76 DIHEDRAL
Info: 0 IMPROPER
Info: 0 CROSSTERM
Info: 0 VDW
Info: 190 VDW_PAIRS
Info: 0 NBTHOLE_PAIRS
Info: STRUCTURE SUMMARY:
Info: 49394 ATOMS
Info: 49448 BONDS
Info: 8698 ANGLES
Info: 18780 DIHEDRALS
Info: 0 IMPROPERS
Info: 0 CROSSTERMS
Info: 0 EXCLUSIONS
Info: 2336 CONSTRAINTS
Info: 44667 RIGID BONDS
Info: 103515 DEGREES OF FREEDOM
Info: 17225 HYDROGEN GROUPS
Info: 4 ATOMS IN LARGEST HYDROGEN GROUP
Info: 17225 MIGRATION GROUPS
Info: 4 ATOMS IN LARGEST MIGRATION GROUP
Info: TOTAL MASS = 301478 amu
Info: TOTAL CHARGE = 1.00115e-05 e
Info: MASS DENSITY = 0.935846 g/cm^3
Info: ATOM DENSITY = 0.0923345 atoms/A^3
Info: ADDED 70656 IMPLICIT EXCLUSIONS
Info: NONBONDED TABLE R-SQUARED SPACING: 0.0625
Info: NONBONDED TABLE SIZE: 769 POINTS
Info: REMOVING COM VELOCITY -0.0244818 -0.004008 -0.014334
TCL: Running for 5000 steps
ETITLE: TS BOND ANGLE DIHED IMPRP ELECT VDW BOUNDARY MISC KINETIC TOTAL TEMP POTENTIAL TOTAL3 TEMPAVG PRESSURE GPRESSURE VOLUME PRESSAVG GPRESSAVG
ENERGY: 0 401.7817 1198.7475 2916.0864 0.0000 -212700.1897 29487.2341 0.0000 0.0000 10082.6878 -168613.6522 98.0310 -178696.3400 -168603.9302 98.0310 -2443.4635 -2542.9751 534946.2959 -2443.4635 -2542.9751
ENERGY: 1000 1270.3375 1955.4424 3096.3579 0.0000 -193629.3778 26477.8975 801.6640 0.0000 24048.1300 -135979.5484 233.8129 -160027.6785 -135959.3857 218.0952 -50.4402 -8.3970 520942.0324 -22.3744 -22.5605
ENERGY: 2000 1479.9045 2169.6544 3130.0253 0.0000 -184185.8237 23190.3234 778.2466 0.0000 27798.4560 -125639.2134 270.2762 -153437.6694 -125599.1349 263.3859 78.4560 -12.1319 517026.6748 -17.2649 -17.6597
ENERGY: 3000 1513.4445 2156.3664 3145.7265 0.0000 -179298.9520 21600.2625 769.7967 0.0000 29450.0865 -120663.2690 286.3345 -150113.3555 -120622.3288 283.3549 -183.5284 2.2974 510975.2778 -13.1733 -13.6825
ENERGY: 4000 1499.2608 2218.6206 3144.7555 0.0000 -176947.1161 20895.2484 805.8751 0.0000 30287.7588 -118095.5969 294.4789 -148383.3558 -118043.7171 293.1990 -106.3105 -14.0299 507979.6297 -14.0377 -14.0235
ENERGY: 5000 1588.6684 2197.8042 3132.1098 0.0000 -176064.5239 20465.5832 801.2387 0.0000 30638.7933 -117240.3261 297.8919 -147879.1194 -117204.1059 297.1573 63.7180 -20.5763 505276.2537 -15.0245 -15.2313
TCL: Setting parameter constraintScaling to 5.0
TCL: Running for 5000 steps
ETITLE: TS BOND ANGLE DIHED IMPRP ELECT VDW BOUNDARY MISC KINETIC TOTAL TEMP POTENTIAL TOTAL3 TEMPAVG PRESSURE GPRESSURE VOLUME PRESSAVG GPRESSAVG
ENERGY: 5000 1588.6684 2197.8042 3132.1098 0.0000 -176064.5239 20465.5832 400.6194 0.0000 30636.7342 -117643.0046 297.8719 -148279.7388 -117597.8928 297.8719 -4.6550 -93.0121 505276.2537 -4.6550 -93.0121
ENERGY: 6000 1650.3720 2324.4380 3178.6607 0.0000 -175858.0643 20512.0613 642.7148 0.0000 30856.1884 -116693.6291 300.0056 -147549.8175 -116647.7186 298.6078 -30.1488 38.5210 504404.4825 3.6435 3.3063
ENERGY: 7000 1678.2571 2300.4131 3124.1499 0.0000 -175435.6882 20139.0608 697.3474 0.0000 31121.5779 -116374.8821 302.5859 -147496.4600 -116328.3185 300.9474 -56.5055 -27.4726 504537.1080 -4.6408 -4.4563
ENERGY: 8000 1654.9991 2331.4537 3155.0254 0.0000 -174986.5072 19998.7208 673.8558 0.0000 31054.7142 -116117.7383 301.9358 -147172.4525 -116067.7493 301.5987 -36.7803 -14.3189 503902.4940 -8.9368 -8.3552
ENERGY: 9000 1612.2651 2333.1660 3179.2100 0.0000 -175689.9342 20271.4812 618.8188 0.0000 30832.8798 -116842.1133 299.7790 -147674.9931 -116803.6548 300.1580 -41.4462 -62.6654 500973.9244 -5.7143 -5.4421
ENERGY: 10000 1610.4223 2314.0970 3153.1735 0.0000 -175374.2296 20155.9882 639.3602 0.0000 30880.9263 -116620.2620 300.2461 -147501.1883 -116574.2228 299.3105 -36.8020 21.8277 502568.5112 13.5563 13.6190
TCL: Setting parameter constraintScaling to 2.5
TCL: Running for 5000 steps
ETITLE: TS BOND ANGLE DIHED IMPRP ELECT VDW BOUNDARY MISC KINETIC TOTAL TEMP POTENTIAL TOTAL3 TEMPAVG PRESSURE GPRESSURE VOLUME PRESSAVG GPRESSAVG
ENERGY: 10000 1610.4223 2314.0970 3153.1735 0.0000 -175374.2296 20155.9882 319.6801 0.0000 30878.8805 -116941.9879 300.2262 -147820.8684 -116900.9470 300.2262 -41.3748 13.3664 502568.5112 -41.3748 13.3664
ENERGY: 11000 1594.1020 2349.1308 3191.8109 0.0000 -175967.8671 20250.7089 504.5163 0.0000 30769.7996 -117307.7986 299.1657 -148077.5982 -117262.7937 298.9865 -13.8234 -38.1454 500373.4005 -5.8827 -6.4069
ENERGY: 12000 1547.9465 2319.0476 3182.8286 0.0000 -175740.2209 20148.3263 515.1597 0.0000 30778.8763 -117248.0359 299.2539 -148026.9122 -117205.4864 299.2681 -86.4475 18.9706 501423.6001 16.7638 17.6500
ENERGY: 13000 1650.0721 2340.1996 3161.5514 0.0000 -175417.1000 20195.4403 502.3269 0.0000 30809.0755 -116758.4342 299.5475 -147567.5097 -116720.2479 300.0098 -70.6397 -49.7840 500939.8596 -0.0663 0.3745
ENERGY: 14000 1604.5923 2354.0614 3163.4613 0.0000 -175638.3201 20164.7491 483.7193 0.0000 30861.6753 -117006.0614 300.0590 -147867.7366 -116958.4705 300.1634 4.8306 17.9833 499789.4882 -0.0644 0.1981
ENERGY: 15000 1635.9252 2329.4193 3161.1369 0.0000 -175517.7468 20123.1898 517.9895 0.0000 30762.2772 -116987.8089 299.0925 -147750.0861 -116950.0913 301.0938 46.9284 -23.8057 497801.8820 -13.9078 -13.8116
TCL: Setting parameter constraintScaling to 1.25
TCL: Running for 5000 steps
ETITLE: TS BOND ANGLE DIHED IMPRP ELECT VDW BOUNDARY MISC KINETIC TOTAL TEMP POTENTIAL TOTAL3 TEMPAVG PRESSURE GPRESSURE VOLUME PRESSAVG GPRESSAVG
ENERGY: 15000 1635.9252 2329.4193 3161.1369 0.0000 -175517.7468 20123.1898 258.9948 0.0000 30760.2541 -117248.8267 299.0729 -148009.0808 -117203.2907 299.0729 81.1791 9.3237 497801.8820 81.1791 9.3237
ENERGY: 16000 1661.8910 2348.6693 3228.1232 0.0000 -175200.0100 19834.0897 397.3483 0.0000 30595.3754 -117134.5132 297.4698 -147729.8886 -117088.0991 299.1427 -20.4698 37.5779 499793.3975 5.1467 5.5328
ENERGY: 17000 1607.5381 2348.3245 3172.0172 0.0000 -175654.9614 19847.0711 410.0761 0.0000 30805.6222 -117464.3121 299.5140 -148269.9343 -117421.3532 299.8740 -62.3811 -59.1040 500470.2315 8.1429 8.3954
ENERGY: 18000 1615.6069 2346.8980 3198.7533 0.0000 -176057.2498 20101.3975 403.2278 0.0000 30879.6378 -117511.7285 300.2336 -148391.3663 -117467.9200 298.6625 -139.6819 0.1189 499927.9451 2.3309 2.5383
ENERGY: 19000 1648.3626 2368.9530 3164.5490 0.0000 -175780.3321 20084.3411 401.4195 0.0000 30800.1711 -117312.5358 299.4610 -148112.7069 -117269.5326 299.4802 -32.3173 -30.7405 498313.1346 -5.9140 -5.4220
ENERGY: 20000 1633.9833 2385.5560 3176.0326 0.0000 -175877.7634 20223.2187 391.9246 0.0000 30766.0369 -117301.0112 299.1291 -148067.0482 -117268.8359 299.0205 -35.2912 1.7447 497229.1250 1.4755 1.6244
TCL: Setting parameter constraintScaling to 0.625
TCL: Running for 5000 steps
ETITLE: TS BOND ANGLE DIHED IMPRP ELECT VDW BOUNDARY MISC KINETIC TOTAL TEMP POTENTIAL TOTAL3 TEMPAVG PRESSURE GPRESSURE VOLUME PRESSAVG GPRESSAVG
ENERGY: 20000 1633.9833 2385.5560 3176.0326 0.0000 -175877.7634 20223.2187 195.9623 0.0000 30763.9922 -117499.0183 299.1092 -148263.0105 -117455.5010 299.1092 -21.5245 8.7359 497229.1250 -21.5245 8.7359
ENERGY: 21000 1632.0349 2322.0858 3178.2712 0.0000 -175670.0388 20174.3336 321.7123 0.0000 31175.7847 -116865.8164 303.1129 -148041.6010 -116824.6063 300.9402 -15.6493 43.4323 498609.8635 -3.3155 -2.9718
ENERGY: 22000 1647.1058 2380.6064 3215.3008 0.0000 -175644.0141 19915.8198 310.7069 0.0000 30643.1809 -117531.2935 297.9346 -148174.4744 -117491.3574 298.7847 -64.9513 -6.2398 498026.1238 6.0150 6.1372
ENERGY: 23000 1564.9172 2405.3611 3233.0463 0.0000 -175819.4370 20122.7998 321.3094 0.0000 30769.3653 -117402.6378 299.1615 -148172.0031 -117360.7779 299.7562 -15.1915 -37.2397 496927.2602 1.5673 0.7167
ENERGY: 24000 1668.6412 2393.6062 3214.5548 0.0000 -175462.8866 19892.6050 293.5991 0.0000 30595.2087 -117404.6716 297.4682 -147999.8803 -117363.5133 299.0517 -12.7140 38.1804 498290.3587 8.1019 9.1654
ENERGY: 25000 1656.5585 2401.3256 3222.7013 0.0000 -176006.6559 20195.6060 329.3104 0.0000 30650.2395 -117550.9146 298.0032 -148201.1541 -117507.1357 299.8769 -1.6378 25.6755 499100.4435 13.7585 13.7787
TCL: Setting parameter constraintScaling to 0.3125
TCL: Running for 5000 steps
ETITLE: TS BOND ANGLE DIHED IMPRP ELECT VDW BOUNDARY MISC KINETIC TOTAL TEMP POTENTIAL TOTAL3 TEMPAVG PRESSURE GPRESSURE VOLUME PRESSAVG GPRESSAVG
ENERGY: 25000 1656.5585 2401.3256 3222.7013 0.0000 -176006.6559 20195.6060 164.6552 0.0000 30648.1739 -117717.6354 297.9831 -148365.8093 -117674.5342 297.9831 -46.5870 -25.8800 499100.4435 -46.5870 -25.8800
ENERGY: 26000 1631.8307 2460.5012 3179.1854 0.0000 -175711.2708 20057.7766 232.3371 0.0000 30843.0557 -117306.5840 299.8779 -148149.6397 -117273.9675 299.7124 -148.6391 -56.0056 499683.0290 8.8898 8.9387
ENERGY: 27000 1613.2060 2398.7934 3225.5872 0.0000 -175715.3791 19949.0042 246.2484 0.0000 30697.4174 -117585.1225 298.4619 -148282.5399 -117524.8142 298.7892 -79.4765 -37.4022 497525.8218 -13.8481 -13.6812
ENERGY: 28000 1645.2650 2425.8653 3182.6207 0.0000 -176145.0634 20130.0976 242.7396 0.0000 30676.4396 -117842.0356 298.2580 -148518.4752 -117794.5425 298.8094 -43.3353 56.2271 497443.0904 7.3910 7.2892
ENERGY: 29000 1687.4704 2378.4485 3196.4036 0.0000 -175724.1003 20068.7138 243.5392 0.0000 30742.8168 -117406.7081 298.9033 -148149.5248 -117367.2374 299.0397 -39.1852 -18.1542 499457.8980 14.7259 14.2850
ENERGY: 30000 1591.6346 2401.2708 3227.8774 0.0000 -175985.2709 20131.1908 263.1243 0.0000 30844.3478 -117525.8252 299.8905 -148370.1730 -117483.0872 298.4534 -75.8883 8.2662 497616.8330 -2.7604 -3.1414
TCL: Setting parameter constraintScaling to 0.15625
TCL: Running for 5000 steps
ETITLE: TS BOND ANGLE DIHED IMPRP ELECT VDW BOUNDARY MISC KINETIC TOTAL TEMP POTENTIAL TOTAL3 TEMPAVG PRESSURE GPRESSURE VOLUME PRESSAVG GPRESSAVG
ENERGY: 30000 1591.6346 2401.2708 3227.8774 0.0000 -175985.2709 20131.1908 131.5622 0.0000 30842.3023 -117659.4328 299.8706 -148501.7352 -117616.4935 299.8706 -79.1808 0.7545 497616.8330 -79.1808 0.7545
ENERGY: 31000 1620.5302 2413.0875 3205.2546 0.0000 -176098.6261 20286.6788 186.3182 0.0000 30576.1221 -117810.6347 297.2826 -148386.7568 -117757.6882 298.8568 -38.6837 -4.2188 497546.4182 2.2124 2.6278
ENERGY: 32000 1628.8532 2375.3143 3236.0261 0.0000 -176702.4036 20324.8656 187.2717 0.0000 30785.6078 -118164.4650 299.3194 -148950.0727 -118123.5537 299.0700 -54.6965 -78.6682 498227.8135 2.0072 2.0296
ENERGY: 33000 1569.1648 2436.1469 3194.8286 0.0000 -176005.3613 20015.1660 206.9136 0.0000 30558.4485 -118024.6928 297.1108 -148583.1413 -117973.2858 298.5965 -9.6859 -38.0091 497459.5599 6.0592 5.6545
ENERGY: 34000 1629.1563 2442.0004 3211.1031 0.0000 -175902.6283 20046.2015 208.9539 0.0000 30962.2419 -117402.9712 301.0367 -148365.2131 -117360.1675 299.1325 -48.3219 4.7573 497279.2552 1.0970 0.9344
ENERGY: 35000 1664.5213 2380.7657 3217.4084 0.0000 -175848.5526 20091.1025 190.1225 0.0000 30788.6569 -117515.9753 299.3490 -148304.6322 -117472.2631 299.6215 -95.9040 1.6291 497390.5910 -1.9201 -1.9710
TCL: Setting parameter constraintScaling to 0.078125
TCL: Running for 5000 steps
ETITLE: TS BOND ANGLE DIHED IMPRP ELECT VDW BOUNDARY MISC KINETIC TOTAL TEMP POTENTIAL TOTAL3 TEMPAVG PRESSURE GPRESSURE VOLUME PRESSAVG GPRESSAVG
ENERGY: 35000 1664.5213 2380.7657 3217.4084 0.0000 -175848.5526 20091.1025 95.0612 0.0000 30786.6241 -117613.0694 299.3293 -148399.6935 -117566.0281 299.3293 -95.2848 1.4674 497390.5910 -95.2848 1.4674
ENERGY: 36000 1648.9413 2433.3302 3210.5981 0.0000 -176145.0324 20170.7829 150.0499 0.0000 30813.6226 -117717.7074 299.5918 -148531.3300 -117680.4235 299.0556 -72.0830 -43.3862 498183.6782 7.4722 8.3003
ENERGY: 37000 1648.8673 2409.8157 3227.2098 0.0000 -176114.9966 20097.7993 147.7505 0.0000 30616.7365 -117966.8175 297.6775 -148583.5540 -117916.8137 298.8117 -101.3400 -2.6528 497091.5043 10.6015 10.2236
ENERGY: 38000 1565.9398 2454.8577 3180.9491 0.0000 -175925.0377 19893.9912 147.4394 0.0000 30666.2921 -118015.5683 298.1593 -148681.8605 -117978.2870 297.9907 -37.1570 16.5951 496085.7982 -8.1260 -8.1948
ENERGY: 39000 1680.5245 2440.0959 3217.8185 0.0000 -176383.1618 20142.8343 164.4620 0.0000 30679.5578 -118057.8687 298.2883 -148737.4265 -118014.4085 298.0360 -103.6142 -63.4214 496902.4072 -1.5164 -1.3151
ENERGY: 40000 1627.9748 2445.5632 3180.6478 0.0000 -176009.0747 20090.7708 152.9673 0.0000 30728.5756 -117782.5753 298.7649 -148511.1509 -117732.6409 298.9421 -51.2858 8.1370 497046.4560 8.2623 8.5354
TCL: Setting parameter constraintScaling to 0.0390625
TCL: Running for 5000 steps
ETITLE: TS BOND ANGLE DIHED IMPRP ELECT VDW BOUNDARY MISC KINETIC TOTAL TEMP POTENTIAL TOTAL3 TEMPAVG PRESSURE GPRESSURE VOLUME PRESSAVG GPRESSAVG
ENERGY: 40000 1627.9748 2445.5632 3180.6478 0.0000 -176009.0747 20090.7708 76.4837 0.0000 30726.5277 -117861.1069 298.7450 -148587.6346 -117816.4975 298.7450 -56.5209 -2.2297 497046.4560 -56.5209 -2.2297
ENERGY: 41000 1576.8391 2395.2451 3199.0947 0.0000 -175545.1024 19870.4560 102.7855 0.0000 30462.4040 -117938.2780 296.1770 -148400.6820 -117894.6695 298.3977 82.3605 70.8086 497653.4972 -1.5215 -1.9819
ENERGY: 42000 1634.3671 2465.7052 3218.2221 0.0000 -175689.1226 19879.4226 112.3124 0.0000 30932.0367 -117447.0566 300.7431 -148379.0933 -117405.8724 299.7054 -40.7739 -55.5492 496256.0303 -8.0812 -7.9860
ENERGY: 43000 1582.8147 2375.1767 3227.1624 0.0000 -176217.3549 20198.3489 110.9673 0.0000 30760.3891 -117962.4958 299.0742 -148722.8849 -117923.6673 299.7859 68.5737 22.8827 496491.4337 -6.9838 -6.9504
ENERGY: 44000 1591.0777 2367.5331 3212.3590 0.0000 -176317.0247 20235.4894 115.9394 0.0000 30922.5814 -117872.0447 300.6511 -148794.6261 -117833.7726 298.8442 -73.6802 3.1229 497635.8451 8.1569 8.2937
ENERGY: 45000 1636.2037 2397.8180 3217.6100 0.0000 -175968.1648 20016.0311 112.2019 0.0000 30767.6516 -117820.6486 299.1448 -148588.3002 -117774.0464 298.9924 4.5787 -42.1705 496302.1692 -9.2050 -8.8121
TCL: Setting parameter constraintScaling to 0.01953125
TCL: Running for 5000 steps
ETITLE: TS BOND ANGLE DIHED IMPRP ELECT VDW BOUNDARY MISC KINETIC TOTAL TEMP POTENTIAL TOTAL3 TEMPAVG PRESSURE GPRESSURE VOLUME PRESSAVG GPRESSAVG
ENERGY: 45000 1636.2037 2397.8180 3217.6100 0.0000 -175968.1648 20016.0311 56.1009 0.0000 30765.5953 -117878.8058 299.1248 -148644.4011 -117833.6498 299.1248 -32.0156 -65.3718 496302.1692 -32.0156 -65.3718
ENERGY: 46000 1548.7192 2436.8131 3174.3148 0.0000 -175810.7302 20203.4938 76.0236 0.0000 30719.7643 -117651.6015 298.6792 -148371.3658 -117605.7938 300.7729 47.1164 118.7649 497801.1636 8.6210 8.7618
ENERGY: 47000 1590.6223 2408.6653 3168.8142 0.0000 -175927.5398 20030.9831 81.6325 0.0000 30774.7945 -117872.0279 299.2142 -148646.8224 -117818.6157 299.0117 -105.3243 -110.6684 497435.9075 -5.8366 -5.9478
ENERGY: 48000 1588.8243 2411.5875 3218.8622 0.0000 -175570.9619 19905.8369 78.3285 0.0000 30803.6513 -117563.8712 299.4948 -148367.5225 -117520.5294 300.2092 -40.3503 -18.7437 496805.5727 -6.0465 -6.4347
ENERGY: 49000 1619.3130 2424.3658 3196.8869 0.0000 -176224.0964 20153.7133 83.6076 0.0000 30692.2974 -118053.9124 298.4121 -148746.2098 -118008.3409 299.5224 19.1514 37.4708 497342.1848 13.4257 12.9723
ENERGY: 50000 1602.2291 2380.5641 3227.4902 0.0000 -175780.8427 19960.8072 90.6130 0.0000 30680.0390 -117839.1001 298.2930 -148519.1391 -117794.6456 299.6100 74.0632 29.0503 498257.2709 11.2109 10.4922
TCL: Setting parameter constraintScaling to 0
TCL: Running for 5000 steps
ETITLE: TS BOND ANGLE DIHED IMPRP ELECT VDW BOUNDARY MISC KINETIC TOTAL TEMP POTENTIAL TOTAL3 TEMPAVG PRESSURE GPRESSURE VOLUME PRESSAVG GPRESSAVG
ENERGY: 50000 1602.2291 2380.5641 3227.4902 0.0000 -175780.8427 19960.8072 0.0000 0.0000 30677.9943 -117931.7578 298.2731 -148609.7521 -117886.6854 298.2731 42.1424 -3.3355 498257.2709 42.1424 -3.3355
ENERGY: 51000 1612.4863 2413.4780 3170.2225 0.0000 -175799.9216 20005.7655 0.0000 0.0000 30733.3273 -117864.6421 298.8111 -148597.9694 -117813.6672 299.4424 77.0287 146.7965 495349.8967 -13.3306 -13.7570
ENERGY: 52000 1611.5601 2424.3656 3203.8969 0.0000 -176380.2210 20109.6216 0.0000 0.0000 30608.0144 -118422.7624 297.5927 -149030.7768 -118378.3700 298.4501 -88.8103 -104.1063 496029.5008 -1.5943 -1.5685
ENERGY: 53000 1680.7075 2455.5805 3188.0372 0.0000 -176069.2086 20193.2851 0.0000 0.0000 30752.3654 -117799.2329 298.9962 -148551.5983 -117759.1594 299.6576 -170.4193 -98.3753 496561.4838 0.2104 0.6130
ENERGY: 54000 1644.7002 2413.6152 3187.0727 0.0000 -176281.0903 20202.7670 0.0000 0.0000 30706.1660 -118126.7693 298.5470 -148832.9353 -118081.5332 299.4757 4.7092 22.7107 496256.8865 6.0690 6.2830
ENERGY: 55000 1617.6255 2382.8819 3199.1886 0.0000 -175756.8270 19923.6667 0.0000 0.0000 31133.7501 -117499.7142 302.7043 -148633.4642 -117448.5655 300.6860 102.9225 108.8962 495110.3476 -0.0112 -0.0997
