Info: SIMULATION PARAMETERS:
Info: TIMESTEP               2
Info: NUMBER OF STEPS        0
Info: STEPS PER CYCLE        10
Info: PERIODIC CELL BASIS 1  72.449 0 0
Info: PERIODIC CELL BASIS 2  0 93.247 0
Info: PERIODIC CELL BASIS 3  0 0 79.185
Info: PERIODIC CELL CENTER   -0.248 -0.156 -0.047
Info: WRAPPING WATERS AROUND PERIODIC BOUNDARIES ON OUTPUT.
Info: WRAPPING ALL CLUSTERS AROUND PERIODIC BOUNDARIES ON OUTPUT.
Info: FIRST LDB TIMESTEP     50
Info: LAST LDB TIMESTEP     -1
Info: HOM BACKGROUND SCALING 1
Info: PME BACKGROUND SCALING 1
Info: MIN ATOMS PER PATCH    40
Info: INITIAL TEMPERATURE    0
Info: CENTER OF MASS MOVING INITIALLY? NO
Info: DIELECTRIC             1
Info: EXCLUDE                SCALED ONE-FOUR
Info: 1-4 ELECTROSTATICS SCALED BY 0.833333
Info: MODIFIED 1-4 VDW PARAMETERS WILL BE USED
Info: NO DCD TRAJECTORY OUTPUT
Info: NO EXTENDED SYSTEM TRAJECTORY OUTPUT
Info: NO VELOCITY DCD OUTPUT
Info: NO FORCE DCD OUTPUT
Info: OUTPUT FILENAME        ../replicas/rep89/equilibration/eq0
Info: NO RESTART FILE
Info: SWITCHING ACTIVE
Info: SWITCHING ON           10
Info: SWITCHING OFF          12
Info: PAIRLIST DISTANCE      13.5
Info: PAIRLIST SHRINK RATE   0.01
Info: PAIRLIST GROW RATE     0.01
Info: PAIRLIST TRIGGER       0.3
Info: PAIRLISTS PER CYCLE    2
Info: PAIRLISTS ENABLED
Info: MARGIN                 0
Info: HYDROGEN GROUP CUTOFF  2.5
Info: PATCH DIMENSION        16
Info: ENERGY OUTPUT STEPS    500
Info: CROSSTERM ENERGY INCLUDED IN DIHEDRAL
Info: TIMING OUTPUT STEPS    5000
Info: PRESSURE OUTPUT STEPS  500
Info: HARMONIC CONSTRAINTS ACTIVE
Info: HARMONIC CONS EXP      2
Info: HARMONIC CONS SCALING  10
Info: CONJUGATE GRADIENT MINIMIZATION ACTIVE
Info: LINE MINIMIZATION GOAL = 0.001
Info: BABY STEP SIZE = 0.01
Info: TINY STEP SIZE = 1e-06
Info: PARTICLE MESH EWALD (PME) ACTIVE
Info: PME TOLERANCE               1e-06
Info: PME EWALD COEFFICIENT       0.257952
Info: PME INTERPOLATION ORDER     4
Info: PME GRID DIMENSIONS         80 96 80
Info: PME MAXIMUM GRID SPACING    1
Info: FULL ELECTROSTATIC EVALUATION FREQUENCY      2
Info: USING VERLET I (r-RESPA) MTS SCHEME.
Info: C1 SPLITTING OF LONG RANGE ELECTROSTATICS
Info: PLACING ATOMS IN PATCHES BY HYDROGEN GROUPS
Info: RIGID BONDS TO HYDROGEN : ALL
Info:         ERROR TOLERANCE : 1e-05
Info:          MAX ITERATIONS : 100
Info: RIGID WATER USING SETTLE ALGORITHM
Info: RANDOM NUMBER SEED     1503690787
Info: USE HYDROGEN BONDS?    NO
Info: Using AMBER format force field!
Info: AMBER PARM FILE        ../build/complex.top
Info: COORDINATE PDB         ../build/complex.pdb
Info: Exclusions in PARM file will be ignored!
Info: SCNB (VDW SCALING)     2
Info: USING ARITHMETIC MEAN TO COMBINE L-J SIGMA PARAMETERS
Info: SUMMARY OF PARAMETERS:
Info: 71 BONDS
Info: 145 ANGLES
Info: 76 DIHEDRAL
Info: 0 IMPROPER
Info: 0 CROSSTERM
Info: 0 VDW
Info: 190 VDW_PAIRS
Info: 0 NBTHOLE_PAIRS
Info: STRUCTURE SUMMARY:
Info: 49394 ATOMS
Info: 49448 BONDS
Info: 8698 ANGLES
Info: 18780 DIHEDRALS
Info: 0 IMPROPERS
Info: 0 CROSSTERMS
Info: 0 EXCLUSIONS
Info: 2336 CONSTRAINTS
Info: 47058 RIGID BONDS
Info: 101124 DEGREES OF FREEDOM
Info: 17225 HYDROGEN GROUPS
Info: 4 ATOMS IN LARGEST HYDROGEN GROUP
Info: 17225 MIGRATION GROUPS
Info: 4 ATOMS IN LARGEST MIGRATION GROUP
Info: TOTAL MASS = 301478 amu
Info: TOTAL CHARGE = 1.00115e-05 e
Info: MASS DENSITY = 0.935846 g/cm^3
Info: ATOM DENSITY = 0.0923345 atoms/A^3
Info: ADDED 70656 IMPLICIT EXCLUSIONS
Info: NONBONDED TABLE R-SQUARED SPACING: 0.0625
Info: NONBONDED TABLE SIZE: 769 POINTS
Info: REMOVING COM VELOCITY 0 0 0
TCL: Minimizing for 100 steps
ETITLE: TS BOND ANGLE DIHED IMPRP ELECT VDW BOUNDARY MISC KINETIC TOTAL TEMP POTENTIAL TOTAL3 TEMPAVG PRESSURE GPRESSURE VOLUME PRESSAVG GPRESSAVG
ENERGY: 0 155.4176 1012.2698 2855.7272 0.0000 -154496.7912 207729.2052 0.0468 0.0000 0.0000 57255.8754 0.0000 57255.8754 57255.8754 0.0000 116350.2532 86546.1670 534946.2959 116350.2532 86546.1670
ENERGY: 20 304.7547 935.7911 2893.4663 0.0000 -158672.9402 17936.6596 143.9454 0.0000 0.0000 -136458.3232 0.0000 -136458.3232 -136458.3232 0.0000 16523.9389 -239.4556 534946.2959 16523.9389 -239.4556
ENERGY: 40 198.7433 799.5726 2896.9273 0.0000 -162811.4534 16417.9536 221.3030 0.0000 0.0000 -142276.9536 0.0000 -142276.9536 -142276.9536 0.0000 15011.2703 -2135.4698 534946.2959 15011.2703 -2135.4698
ENERGY: 60 130.5284 715.3440 2898.2166 0.0000 -167496.1560 15446.7541 315.2796 0.0000 0.0000 -147990.0334 0.0000 -147990.0334 -147990.0334 0.0000 13793.8839 -3799.3984 534946.2959 13793.8839 -3799.3984
ENERGY: 80 431.2734 765.6309 2904.3784 0.0000 -169937.5215 15121.1533 372.0121 0.0000 0.0000 -150343.0734 0.0000 -150343.0734 -150343.0734 0.0000 13270.3326 -4577.2424 534946.2959 13270.3326 -4577.2424
ENERGY: 100 119.3884 710.0604 2905.2590 0.0000 -171259.7172 14991.7864 387.3613 0.0000 0.0000 -152145.8617 0.0000 -152145.8617 -152145.8617 0.0000 13056.2646 -4908.1741 534946.2959 13056.2646 -4908.1741
TCL: Setting parameter constraintScaling to 5.0
TCL: Minimizing for 100 steps
ETITLE: TS BOND ANGLE DIHED IMPRP ELECT VDW BOUNDARY MISC KINETIC TOTAL TEMP POTENTIAL TOTAL3 TEMPAVG PRESSURE GPRESSURE VOLUME PRESSAVG GPRESSAVG
ENERGY: 100 119.3884 710.0604 2905.2590 0.0000 -171259.7172 14991.7864 193.6807 0.0000 0.0000 -152339.5424 0.0000 -152339.5424 -152339.5424 0.0000 13672.7708 -23021.8202 534946.2959 13672.7708 -23021.8202
ENERGY: 120 108.8863 687.5854 2912.9268 0.0000 -172865.8703 14798.2713 281.1914 0.0000 0.0000 -154077.0091 0.0000 -154077.0091 -154077.0091 0.0000 13218.2567 -4906.0131 534946.2959 13218.2567 -4906.0131
ENERGY: 140 309.4712 708.8746 2913.8026 0.0000 -174236.5864 14731.4857 326.6370 0.0000 0.0000 -155246.3152 0.0000 -155246.3152 -155246.3152 0.0000 12971.5346 -5303.2251 534946.2959 12971.5346 -5303.2251
ENERGY: 160 265.0561 683.0615 2923.1635 0.0000 -176274.2249 14757.2703 382.8481 0.0000 0.0000 -157262.8254 0.0000 -157262.8254 -157262.8254 0.0000 12741.0989 -5742.7726 534946.2959 12741.0989 -5742.7726
ENERGY: 180 269.0138 744.0932 2928.5660 0.0000 -178994.5186 15023.3667 473.2563 0.0000 0.0000 -159556.2227 0.0000 -159556.2227 -159556.2227 0.0000 12521.6524 -6223.7514 534946.2959 12521.6524 -6223.7514
ENERGY: 200 238.7856 694.1065 2941.3554 0.0000 -181555.6641 15586.9116 546.2556 0.0000 0.0000 -161548.2494 0.0000 -161548.2494 -161548.2494 0.0000 12582.6348 -6422.9353 534946.2959 12582.6348 -6422.9353
TCL: Setting parameter constraintScaling to 2.5
TCL: Minimizing for 100 steps
ETITLE: TS BOND ANGLE DIHED IMPRP ELECT VDW BOUNDARY MISC KINETIC TOTAL TEMP POTENTIAL TOTAL3 TEMPAVG PRESSURE GPRESSURE VOLUME PRESSAVG GPRESSAVG
ENERGY: 200 238.7856 694.1065 2941.3554 0.0000 -181555.6641 15586.9116 273.1278 0.0000 0.0000 -161821.3772 0.0000 -161821.3772 -161821.3772 0.0000 13229.5280 -25653.6903 534946.2959 13229.5280 -25653.6903
ENERGY: 220 251.1288 680.0364 2933.0268 0.0000 -182082.8555 15470.6754 338.6549 0.0000 0.0000 -162409.3331 0.0000 -162409.3331 -162409.3331 0.0000 12967.5912 -6093.4062 534946.2959 12967.5912 -6093.4062
ENERGY: 240 139.2442 665.8259 2928.5953 0.0000 -182462.4920 15494.0618 343.6283 0.0000 0.0000 -162891.1366 0.0000 -162891.1366 -162891.1366 0.0000 13034.1955 -6106.1445 534946.2959 13034.1955 -6106.1445
ENERGY: 260 164.9245 683.7328 2921.6339 0.0000 -183940.9577 15800.3318 385.3886 0.0000 0.0000 -163984.9460 0.0000 -163984.9460 -163984.9460 0.0000 13031.9148 -6244.8674 534946.2959 13031.9148 -6244.8674
ENERGY: 280 169.0796 700.9541 2917.6135 0.0000 -185424.3719 16229.6789 454.7782 0.0000 0.0000 -164952.2676 0.0000 -164952.2676 -164952.2676 0.0000 13144.0400 -6336.7285 534946.2959 13144.0400 -6336.7285
ENERGY: 300 126.6692 639.5647 2916.2579 0.0000 -186096.6149 16446.7118 481.3786 0.0000 0.0000 -165486.0327 0.0000 -165486.0327 -165486.0327 0.0000 13208.1893 -6341.0262 534946.2959 13208.1893 -6341.0262
TCL: Setting parameter constraintScaling to 1.25
TCL: Minimizing for 100 steps
ETITLE: TS BOND ANGLE DIHED IMPRP ELECT VDW BOUNDARY MISC KINETIC TOTAL TEMP POTENTIAL TOTAL3 TEMPAVG PRESSURE GPRESSURE VOLUME PRESSAVG GPRESSAVG
ENERGY: 300 126.6692 639.5647 2916.2579 0.0000 -186096.6149 16446.7118 240.6893 0.0000 0.0000 -165726.7221 0.0000 -165726.7221 -165726.7221 0.0000 13656.5478 -26351.2269 534946.2959 13656.5478 -26351.2269
ENERGY: 320 132.1392 624.5951 2911.1495 0.0000 -186667.9737 16580.6698 272.7754 0.0000 0.0000 -166146.6448 0.0000 -166146.6448 -166146.6448 0.0000 13630.0512 -5972.5255 534946.2959 13630.0512 -5972.5255
ENERGY: 340 150.7696 624.7250 2910.6600 0.0000 -187377.9126 16811.5013 296.0576 0.0000 0.0000 -166584.1991 0.0000 -166584.1991 -166584.1991 0.0000 13648.1039 -6009.4432 534946.2959 13648.1039 -6009.4432
ENERGY: 360 310.2803 692.3124 2907.0397 0.0000 -189063.9222 17392.1644 363.3106 0.0000 0.0000 -167398.8147 0.0000 -167398.8147 -167398.8147 0.0000 13886.0779 -6004.0028 534946.2959 13886.0779 -6004.0028
ENERGY: 380 174.4799 657.7031 2901.7340 0.0000 -189876.3992 17712.6487 380.7452 0.0000 0.0000 -168049.0882 0.0000 -168049.0882 -168049.0882 0.0000 13968.5097 -5986.7437 534946.2959 13968.5097 -5986.7437
ENERGY: 400 139.2591 633.5437 2899.8021 0.0000 -190456.3616 17922.0106 394.3833 0.0000 0.0000 -168467.3628 0.0000 -168467.3628 -168467.3628 0.0000 14119.5219 -5921.8804 534946.2959 14119.5219 -5921.8804
TCL: Setting parameter constraintScaling to 0.625
TCL: Minimizing for 100 steps
ETITLE: TS BOND ANGLE DIHED IMPRP ELECT VDW BOUNDARY MISC KINETIC TOTAL TEMP POTENTIAL TOTAL3 TEMPAVG PRESSURE GPRESSURE VOLUME PRESSAVG GPRESSAVG
ENERGY: 400 139.2591 633.5437 2899.8021 0.0000 -190456.3615 17922.0106 197.1917 0.0000 0.0000 -168664.5545 0.0000 -168664.5545 -168664.5545 0.0000 14417.5509 -26608.6727 534946.2959 14417.5509 -26608.6727
ENERGY: 420 148.3308 626.9214 2895.4017 0.0000 -190853.3470 18013.9287 218.2560 0.0000 0.0000 -168950.5085 0.0000 -168950.5085 -168950.5085 0.0000 14350.3774 -5717.9439 534946.2959 14350.3774 -5717.9439
ENERGY: 440 193.5620 637.5678 2900.5323 0.0000 -191458.0840 18205.8275 237.8760 0.0000 0.0000 -169282.7185 0.0000 -169282.7185 -169282.7185 0.0000 14331.7486 -5774.7900 534946.2959 14331.7486 -5774.7900
ENERGY: 460 171.8821 648.9113 2888.1679 0.0000 -192284.7639 18489.1820 261.9082 0.0000 0.0000 -169824.7125 0.0000 -169824.7125 -169824.7125 0.0000 14551.6320 -5701.6908 534946.2959 14551.6320 -5701.6908
ENERGY: 480 143.5351 641.0712 2881.4983 0.0000 -193310.0042 18884.5140 290.0881 0.0000 0.0000 -170469.2975 0.0000 -170469.2975 -170469.2975 0.0000 14709.7632 -5655.8354 534946.2959 14709.7632 -5655.8354
ENERGY: 500 166.1785 641.6510 2884.6406 0.0000 -193896.2405 19113.9137 300.6536 0.0000 0.0000 -170789.2031 0.0000 -170789.2031 -170789.2031 0.0000 14731.7192 -5663.6203 534946.2959 14731.7192 -5663.6203
TCL: Setting parameter constraintScaling to 0.3125
TCL: Minimizing for 100 steps
ETITLE: TS BOND ANGLE DIHED IMPRP ELECT VDW BOUNDARY MISC KINETIC TOTAL TEMP POTENTIAL TOTAL3 TEMPAVG PRESSURE GPRESSURE VOLUME PRESSAVG GPRESSAVG
ENERGY: 500 166.1785 641.6510 2884.6406 0.0000 -193896.2405 19113.9137 150.3268 0.0000 0.0000 -170939.5300 0.0000 -170939.5300 -170939.5300 0.0000 14925.5776 -26911.2481 534946.2959 14925.5776 -26911.2481
ENERGY: 520 147.2627 652.8526 2878.1382 0.0000 -194083.3749 19175.0356 155.5790 0.0000 0.0000 -171074.5069 0.0000 -171074.5069 -171074.5069 0.0000 15026.6921 -5424.5167 534946.2959 15026.6921 -5424.5167
ENERGY: 540 183.2227 661.6063 2873.6239 0.0000 -194815.4876 19430.0823 178.0671 0.0000 0.0000 -171488.8853 0.0000 -171488.8853 -171488.8853 0.0000 15112.9532 -5425.1142 534946.2959 15112.9532 -5425.1142
ENERGY: 560 294.2213 690.6007 2884.6148 0.0000 -195368.1765 19643.4507 189.7940 0.0000 0.0000 -171665.4951 0.0000 -171665.4951 -171665.4951 0.0000 15047.2037 -5489.2812 534946.2959 15047.2037 -5489.2812
ENERGY: 580 158.9955 650.0186 2866.5465 0.0000 -196656.3429 20165.8392 215.9981 0.0000 0.0000 -172598.9451 0.0000 -172598.9451 -172598.9451 0.0000 15396.1195 -5331.0570 534946.2959 15396.1195 -5331.0570
ENERGY: 600 156.8057 644.9800 2865.8816 0.0000 -196862.9260 20238.8678 221.4595 0.0000 0.0000 -172734.9313 0.0000 -172734.9313 -172734.9313 0.0000 15415.6509 -5334.1572 534946.2959 15415.6509 -5334.1572
TCL: Setting parameter constraintScaling to 0.15625
TCL: Minimizing for 100 steps
ETITLE: TS BOND ANGLE DIHED IMPRP ELECT VDW BOUNDARY MISC KINETIC TOTAL TEMP POTENTIAL TOTAL3 TEMPAVG PRESSURE GPRESSURE VOLUME PRESSAVG GPRESSAVG
ENERGY: 600 156.8057 644.9800 2865.8816 0.0000 -196862.9260 20238.8678 110.7297 0.0000 0.0000 -172845.6611 0.0000 -172845.6611 -172845.6611 0.0000 15537.5063 -26997.0317 534946.2959 15537.5063 -26997.0317
ENERGY: 620 154.0200 652.6386 2857.2159 0.0000 -197452.6979 20451.2488 121.2557 0.0000 0.0000 -173216.3189 0.0000 -173216.3189 -173216.3189 0.0000 15618.9758 -5199.4994 534946.2959 15618.9758 -5199.4994
ENERGY: 640 338.5129 688.6693 2861.7695 0.0000 -197751.9071 20552.8477 123.6811 0.0000 0.0000 -173186.4266 0.0000 -173186.4266 -173186.4266 0.0000 15673.3838 -5174.0679 534946.2959 15673.3838 -5174.0679
ENERGY: 660 171.7383 657.6323 2852.9039 0.0000 -198446.1975 20808.9271 132.6976 0.0000 0.0000 -173822.2983 0.0000 -173822.2983 -173822.2983 0.0000 15797.7705 -5142.4774 534946.2959 15797.7705 -5142.4774
ENERGY: 680 217.9371 660.2319 2847.4649 0.0000 -199476.1573 21215.2558 148.8526 0.0000 0.0000 -174386.4150 0.0000 -174386.4150 -174386.4150 0.0000 15982.2911 -5078.8650 534946.2959 15982.2911 -5078.8650
ENERGY: 700 198.2354 660.2245 2837.9719 0.0000 -200762.2331 21800.3756 167.7299 0.0000 0.0000 -175097.6959 0.0000 -175097.6959 -175097.6959 0.0000 16262.8402 -4936.9954 534946.2959 16262.8402 -4936.9954
TCL: Setting parameter constraintScaling to 0.078125
TCL: Minimizing for 100 steps
ETITLE: TS BOND ANGLE DIHED IMPRP ELECT VDW BOUNDARY MISC KINETIC TOTAL TEMP POTENTIAL TOTAL3 TEMPAVG PRESSURE GPRESSURE VOLUME PRESSAVG GPRESSAVG
ENERGY: 700 198.2354 660.2245 2837.9719 0.0000 -200762.2331 21800.3756 83.8650 0.0000 0.0000 -175181.5608 0.0000 -175181.5608 -175181.5608 0.0000 16341.0066 -27127.4017 534946.2959 16341.0066 -27127.4017
ENERGY: 720 162.2202 654.6618 2838.3823 0.0000 -200884.8304 21826.0233 85.7891 0.0000 0.0000 -175317.7537 0.0000 -175317.7537 -175317.7537 0.0000 16346.2742 -4874.5095 534946.2959 16346.2742 -4874.5095
ENERGY: 740 165.2729 660.4323 2833.2686 0.0000 -201201.6094 21923.3268 88.9276 0.0000 0.0000 -175530.3811 0.0000 -175530.3811 -175530.3811 0.0000 16367.7388 -4882.3733 534946.2959 16367.7388 -4882.3733
ENERGY: 760 165.2027 657.9722 2838.6091 0.0000 -201363.0867 21965.6619 88.5648 0.0000 0.0000 -175647.0760 0.0000 -175647.0760 -175647.0760 0.0000 16414.0372 -4859.8122 534946.2959 16414.0372 -4859.8122
ENERGY: 780 162.4859 685.8446 2842.6955 0.0000 -201882.7604 22157.7792 92.6533 0.0000 0.0000 -175941.3019 0.0000 -175941.3019 -175941.3019 0.0000 16548.7380 -4797.5827 534946.2959 16548.7380 -4797.5827
ENERGY: 800 164.5414 656.5805 2828.9253 0.0000 -202063.6971 22211.8271 96.5060 0.0000 0.0000 -176105.3169 0.0000 -176105.3169 -176105.3169 0.0000 16513.9569 -4843.3842 534946.2959 16513.9569 -4843.3842
TCL: Setting parameter constraintScaling to 0.0390625
TCL: Minimizing for 100 steps
ETITLE: TS BOND ANGLE DIHED IMPRP ELECT VDW BOUNDARY MISC KINETIC TOTAL TEMP POTENTIAL TOTAL3 TEMPAVG PRESSURE GPRESSURE VOLUME PRESSAVG GPRESSAVG
ENERGY: 800 164.5414 656.5805 2828.9253 0.0000 -202063.6971 22211.8271 48.2530 0.0000 0.0000 -176153.5699 0.0000 -176153.5699 -176153.5699 0.0000 16556.5728 -27220.6934 534946.2959 16556.5728 -27220.6934
ENERGY: 820 424.1714 739.5884 2830.6465 0.0000 -202447.0606 22360.9284 49.8013 0.0000 0.0000 -176041.9245 0.0000 -176041.9245 -176041.9245 0.0000 16624.9236 -4796.5952 534946.2959 16624.9236 -4796.5952
ENERGY: 840 187.6778 658.3512 2824.5694 0.0000 -202650.8265 22436.1304 51.3434 0.0000 0.0000 -176492.7544 0.0000 -176492.7544 -176492.7544 0.0000 16649.3754 -4775.4507 534946.2959 16649.3754 -4775.4507
ENERGY: 860 182.0183 658.6167 2825.1131 0.0000 -203008.8534 22575.8109 52.6006 0.0000 0.0000 -176714.6938 0.0000 -176714.6938 -176714.6938 0.0000 16764.0259 -4697.5534 534946.2959 16764.0259 -4697.5534
ENERGY: 880 269.3641 676.0735 2819.5716 0.0000 -204345.7896 23199.8952 60.7660 0.0000 0.0000 -177320.1192 0.0000 -177320.1192 -177320.1192 0.0000 17031.7617 -4596.6693 534946.2959 17031.7617 -4596.6693
ENERGY: 900 184.0414 665.1518 2814.0707 0.0000 -204880.1450 23471.9475 63.7920 0.0000 0.0000 -177681.1416 0.0000 -177681.1416 -177681.1416 0.0000 17205.4933 -4481.3824 534946.2959 17205.4933 -4481.3824
TCL: Setting parameter constraintScaling to 0.01953125
TCL: Minimizing for 100 steps
ETITLE: TS BOND ANGLE DIHED IMPRP ELECT VDW BOUNDARY MISC KINETIC TOTAL TEMP POTENTIAL TOTAL3 TEMPAVG PRESSURE GPRESSURE VOLUME PRESSAVG GPRESSAVG
ENERGY: 900 184.0414 665.1518 2814.0707 0.0000 -204880.1450 23471.9475 31.8960 0.0000 0.0000 -177713.0376 0.0000 -177713.0376 -177713.0376 0.0000 17230.9898 -27221.8263 534946.2959 17230.9898 -27221.8263
ENERGY: 920 165.9329 653.1519 2812.9889 0.0000 -204949.6102 23484.8081 32.0501 0.0000 0.0000 -177800.6783 0.0000 -177800.6783 -177800.6783 0.0000 17228.9071 -4464.2190 534946.2959 17228.9071 -4464.2190
ENERGY: 940 162.1207 649.6607 2810.7470 0.0000 -205106.0662 23530.8045 32.5323 0.0000 0.0000 -177920.2010 0.0000 -177920.2010 -177920.2010 0.0000 17252.4343 -4458.1743 534946.2959 17252.4343 -4458.1743
ENERGY: 960 213.1762 680.1710 2811.9516 0.0000 -205334.7153 23609.9778 33.3126 0.0000 0.0000 -177986.1261 0.0000 -177986.1261 -177986.1261 0.0000 17283.2551 -4453.5365 534946.2959 17283.2551 -4453.5365
ENERGY: 980 272.8992 674.7352 2809.9773 0.0000 -205745.4171 23786.3630 34.5410 0.0000 0.0000 -178166.9014 0.0000 -178166.9014 -178166.9014 0.0000 17368.2860 -4429.8721 534946.2959 17368.2860 -4429.8721
ENERGY: 1000 164.3866 659.6268 2806.6265 0.0000 -206124.0236 23947.5131 35.9439 0.0000 0.0000 -178509.9266 0.0000 -178509.9266 -178509.9266 0.0000 17460.2008 -4372.9780 534946.2959 17460.2008 -4372.9780
TCL: Setting parameter constraintScaling to 0
TCL: Minimizing for 5000 steps
ETITLE: TS BOND ANGLE DIHED IMPRP ELECT VDW BOUNDARY MISC KINETIC TOTAL TEMP POTENTIAL TOTAL3 TEMPAVG PRESSURE GPRESSURE VOLUME PRESSAVG GPRESSAVG
ENERGY: 1000 164.3866 659.6268 2806.6265 0.0000 -206124.0236 23947.5131 0.0000 0.0000 0.0000 -178545.8705 0.0000 -178545.8705 -178545.8705 0.0000 17487.7621 -27261.6270 534946.2959 17487.7621 -27261.6270
ENERGY: 2000 167.5453 661.9723 2799.6138 0.0000 -214978.6027 27885.2172 0.0000 0.0000 0.0000 -183464.2540 0.0000 -183464.2540 -183464.2540 0.0000 19585.5711 -3241.9639 534946.2959 19585.5711 -3241.9639
ENERGY: 3000 169.0876 666.3480 2794.4631 0.0000 -217510.3515 28869.4394 0.0000 0.0000 0.0000 -185011.0134 0.0000 -185011.0134 -185011.0134 0.0000 20086.1579 -3009.2421 534946.2959 20086.1579 -3009.2421
ENERGY: 4000 166.3750 666.1142 2788.9911 0.0000 -218658.5269 29332.9618 0.0000 0.0000 0.0000 -185704.0849 0.0000 -185704.0849 -185704.0849 0.0000 20341.5914 -2859.8874 534946.2959 20341.5914 -2859.8874
ENERGY: 5000 166.9362 666.6801 2786.1109 0.0000 -219307.6555 29582.6702 0.0000 0.0000 0.0000 -186105.2581 0.0000 -186105.2581 -186105.2581 0.0000 20471.3222 -2808.8572 534946.2959 20471.3222 -2808.8572
ENERGY: 6000 166.1394 666.5703 2781.5648 0.0000 -219781.2987 29770.4718 0.0000 0.0000 0.0000 -186396.5523 0.0000 -186396.5523 -186396.5523 0.0000 20569.0811 -2760.2059 534946.2959 20569.0811 -2760.2059
