Info: SIMULATION PARAMETERS:
Info: TIMESTEP               1
Info: NUMBER OF STEPS        0
Info: STEPS PER CYCLE        10
Info: PERIODIC CELL BASIS 1  72.449 0 0
Info: PERIODIC CELL BASIS 2  0 93.247 0
Info: PERIODIC CELL BASIS 3  0 0 79.185
Info: PERIODIC CELL CENTER   -0.248 -0.156 -0.047
Info: WRAPPING WATERS AROUND PERIODIC BOUNDARIES ON OUTPUT.
Info: WRAPPING ALL CLUSTERS AROUND PERIODIC BOUNDARIES ON OUTPUT.
Info: FIRST LDB TIMESTEP     50
Info: LAST LDB TIMESTEP     -1
Info: HOM BACKGROUND SCALING 1
Info: PME BACKGROUND SCALING 1
Info: MIN ATOMS PER PATCH    40
Info: VELOCITY FILE          ../replicas/rep45/equilibration/eq1.vel
Info: CENTER OF MASS MOVING INITIALLY? NO
Info: DIELECTRIC             1
Info: EXCLUDE                SCALED ONE-FOUR
Info: 1-4 ELECTROSTATICS SCALED BY 0.833333
Info: MODIFIED 1-4 VDW PARAMETERS WILL BE USED
Info: DCD FILENAME           ../replicas/rep45/equilibration/eq2.dcd
Info: DCD FREQUENCY          5000
Info: DCD FIRST STEP         5000
Info: DCD FILE WILL CONTAIN UNIT CELL DATA
Info: XST FILENAME           ../replicas/rep45/equilibration/eq2.xst
Info: XST FREQUENCY          5000
Info: NO VELOCITY DCD OUTPUT
Info: NO FORCE DCD OUTPUT
Info: OUTPUT FILENAME        ../replicas/rep45/equilibration/eq2
Info: RESTART FILENAME       ../replicas/rep45/equilibration/eq2.restart
Info: RESTART FREQUENCY      5000
Info: BINARY RESTART FILES WILL BE USED
Info: SWITCHING ACTIVE
Info: SWITCHING ON           10
Info: SWITCHING OFF          12
Info: PAIRLIST DISTANCE      13.5
Info: PAIRLIST SHRINK RATE   0.01
Info: PAIRLIST GROW RATE     0.01
Info: PAIRLIST TRIGGER       0.3
Info: PAIRLISTS PER CYCLE    2
Info: PAIRLISTS ENABLED
Info: MARGIN                 0.48
Info: HYDROGEN GROUP CUTOFF  2.5
Info: PATCH DIMENSION        16.48
Info: ENERGY OUTPUT STEPS    500
Info: CROSSTERM ENERGY INCLUDED IN DIHEDRAL
Info: TIMING OUTPUT STEPS    5000
Info: PRESSURE OUTPUT STEPS  500
Info: HARMONIC CONSTRAINTS ACTIVE
Info: HARMONIC CONS EXP      2
Info: HARMONIC CONS SCALING  10
Info: LANGEVIN DYNAMICS ACTIVE
Info: LANGEVIN TEMPERATURE   300
Info: LANGEVIN USING BBK INTEGRATOR
Info: LANGEVIN DAMPING COEFFICIENT IS 5 INVERSE PS
Info: LANGEVIN DYNAMICS NOT APPLIED TO HYDROGENS
Info: BERENDSEN PRESSURE COUPLING ACTIVE
Info:     TARGET PRESSURE IS 1 BAR
Info:     COMPRESSIBILITY ESTIMATE IS 4.57e-05 BAR^(-1)
Info:     RELAXATION TIME IS 100 FS
Info:     APPLIED EVERY 2 STEPS
Info:     PRESSURE CONTROL IS GROUP-BASED
Info:       CELL FLUCTUATION IS ISOTROPIC
Info: PARTICLE MESH EWALD (PME) ACTIVE
Info: PME TOLERANCE               1e-06
Info: PME EWALD COEFFICIENT       0.257952
Info: PME INTERPOLATION ORDER     4
Info: PME GRID DIMENSIONS         80 96 80
Info: PME MAXIMUM GRID SPACING    1
Info: FULL ELECTROSTATIC EVALUATION FREQUENCY      2
Info: USING VERLET I (r-RESPA) MTS SCHEME.
Info: C1 SPLITTING OF LONG RANGE ELECTROSTATICS
Info: PLACING ATOMS IN PATCHES BY HYDROGEN GROUPS
Info: RIGID BONDS TO HYDROGEN : WATER
Info:         ERROR TOLERANCE : 1e-05
Info:          MAX ITERATIONS : 100
Info: RIGID WATER USING SETTLE ALGORITHM
Info: RANDOM NUMBER SEED     1503700234
Info: USE HYDROGEN BONDS?    NO
Info: Using AMBER format force field!
Info: AMBER PARM FILE        ../build/complex.top
Info: COORDINATE PDB         ../replicas/rep45/equilibration/eq1.coor
Info: Exclusions in PARM file will be ignored!
Info: SCNB (VDW SCALING)     2
Info: USING ARITHMETIC MEAN TO COMBINE L-J SIGMA PARAMETERS
Info: SUMMARY OF PARAMETERS:
Info: 71 BONDS
Info: 145 ANGLES
Info: 76 DIHEDRAL
Info: 0 IMPROPER
Info: 0 CROSSTERM
Info: 0 VDW
Info: 190 VDW_PAIRS
Info: 0 NBTHOLE_PAIRS
Info: STRUCTURE SUMMARY:
Info: 49394 ATOMS
Info: 49448 BONDS
Info: 8698 ANGLES
Info: 18780 DIHEDRALS
Info: 0 IMPROPERS
Info: 0 CROSSTERMS
Info: 0 EXCLUSIONS
Info: 2336 CONSTRAINTS
Info: 44667 RIGID BONDS
Info: 103515 DEGREES OF FREEDOM
Info: 17225 HYDROGEN GROUPS
Info: 4 ATOMS IN LARGEST HYDROGEN GROUP
Info: 17225 MIGRATION GROUPS
Info: 4 ATOMS IN LARGEST MIGRATION GROUP
Info: TOTAL MASS = 301478 amu
Info: TOTAL CHARGE = 1.00115e-05 e
Info: MASS DENSITY = 0.935846 g/cm^3
Info: ATOM DENSITY = 0.0923345 atoms/A^3
Info: ADDED 70656 IMPLICIT EXCLUSIONS
Info: NONBONDED TABLE R-SQUARED SPACING: 0.0625
Info: NONBONDED TABLE SIZE: 769 POINTS
Info: REMOVING COM VELOCITY -0.0250419 0.00317847 -0.0201901
TCL: Running for 5000 steps
ETITLE: TS BOND ANGLE DIHED IMPRP ELECT VDW BOUNDARY MISC KINETIC TOTAL TEMP POTENTIAL TOTAL3 TEMPAVG PRESSURE GPRESSURE VOLUME PRESSAVG GPRESSAVG
ENERGY: 0 383.9494 1217.1548 2927.9296 0.0000 -212485.6807 29294.2997 0.0000 0.0000 9998.7475 -168663.5998 97.2149 -178662.3473 -168654.0737 97.2149 -2456.1447 -2555.9926 534946.2959 -2456.1447 -2555.9926
ENERGY: 1000 1244.7488 1998.0438 3125.2424 0.0000 -193316.6744 26333.8667 792.0930 0.0000 24060.0110 -135762.6688 233.9284 -159822.6798 -135738.3673 219.4756 7.9415 -18.7259 522196.1777 -18.3441 -18.1426
ENERGY: 2000 1433.1942 2210.6875 3118.2673 0.0000 -184112.2454 23564.7089 772.3025 0.0000 27810.0429 -125203.0421 270.3888 -153013.0851 -125162.9191 263.9864 -52.9267 13.4209 516511.9817 -16.8291 -17.1364
ENERGY: 3000 1538.4930 2275.2022 3140.4057 0.0000 -179312.5510 21733.4377 792.7748 0.0000 29498.9872 -120333.2503 286.8099 -149832.2375 -120289.1792 283.8746 -5.7115 17.7025 509597.9445 -24.1409 -24.6782
ENERGY: 4000 1513.9784 2269.2401 3139.3193 0.0000 -177232.4743 20931.1438 791.1728 0.0000 30377.5485 -118210.0714 295.3519 -148587.6199 -118166.5737 291.9424 -50.4723 10.7425 507723.8167 -5.8147 -5.5331
ENERGY: 5000 1605.1662 2320.7642 3132.6991 0.0000 -175774.1512 20191.3949 781.8720 0.0000 30663.6635 -117078.5913 298.1337 -147742.2548 -117018.2482 297.2256 -39.8227 -20.8200 506201.2985 -1.7588 -1.6603
TCL: Setting parameter constraintScaling to 5.0
TCL: Running for 5000 steps
ETITLE: TS BOND ANGLE DIHED IMPRP ELECT VDW BOUNDARY MISC KINETIC TOTAL TEMP POTENTIAL TOTAL3 TEMPAVG PRESSURE GPRESSURE VOLUME PRESSAVG GPRESSAVG
ENERGY: 5000 1605.1662 2320.7642 3132.6991 0.0000 -175774.1512 20191.3949 390.9360 0.0000 30661.5846 -117471.6062 298.1135 -148133.1908 -117425.2904 298.1135 -110.1483 -88.5416 506201.2985 -110.1483 -88.5416
ENERGY: 6000 1561.0762 2339.7075 3161.8034 0.0000 -175988.1528 20604.8495 634.2080 0.0000 30502.3279 -117184.1804 296.5651 -147686.5083 -117138.4232 298.2531 -65.4840 -34.7579 505144.7816 -1.3795 -1.8912
ENERGY: 7000 1576.2282 2346.3186 3138.5791 0.0000 -176181.2782 20368.4759 618.4343 0.0000 30645.5690 -117487.6731 297.9578 -148133.2421 -117443.3683 297.8547 57.0155 74.1484 502685.2856 1.4804 1.6600
ENERGY: 8000 1617.2765 2354.2082 3156.8537 0.0000 -175556.4118 20288.3634 677.9398 0.0000 30897.8639 -116563.9062 300.4108 -147461.7701 -116518.1997 299.8408 -103.7102 -39.7808 503479.8431 6.6617 6.4112
ENERGY: 9000 1637.8667 2405.8333 3149.4863 0.0000 -175856.9135 20246.0225 666.2690 0.0000 30947.3138 -116804.1218 300.8916 -147751.4356 -116763.9104 299.8772 -38.5895 44.7935 501222.0059 -9.0662 -9.1836
ENERGY: 10000 1600.2035 2370.8275 3156.7918 0.0000 -175030.3152 19787.0105 639.9677 0.0000 30881.1207 -116594.3936 300.2480 -147475.5143 -116561.5455 299.7043 30.0597 -9.8772 500998.6893 1.1217 1.8326
TCL: Setting parameter constraintScaling to 2.5
TCL: Running for 5000 steps
ETITLE: TS BOND ANGLE DIHED IMPRP ELECT VDW BOUNDARY MISC KINETIC TOTAL TEMP POTENTIAL TOTAL3 TEMPAVG PRESSURE GPRESSURE VOLUME PRESSAVG GPRESSAVG
ENERGY: 10000 1600.2035 2370.8275 3156.7918 0.0000 -175030.3152 19787.0105 319.9838 0.0000 30879.0499 -116916.4482 300.2279 -147795.4981 -116870.0162 300.2279 -72.1590 -105.4971 500998.6893 -72.1590 -105.4971
ENERGY: 11000 1642.3793 2374.3402 3154.5550 0.0000 -175171.4434 20105.0177 511.5806 0.0000 30943.1934 -116440.3773 300.8515 -147383.5707 -116388.5916 300.8406 -25.2341 -50.6713 500792.1059 -1.7298 -1.9472
ENERGY: 12000 1580.3813 2327.1472 3184.1581 0.0000 -175197.0577 19925.1784 482.9033 0.0000 30927.6289 -116769.6604 300.7002 -147697.2893 -116721.7595 300.2732 22.7660 83.5808 500118.0732 1.3972 1.3722
ENERGY: 13000 1595.4623 2363.1244 3164.4351 0.0000 -175350.9191 19822.3591 502.5936 0.0000 30818.9997 -117083.9448 299.6440 -147902.9445 -117044.4278 299.4359 -55.8141 -16.7786 500901.1475 6.7456 7.1097
ENERGY: 14000 1626.3446 2355.4561 3181.7252 0.0000 -175470.6116 20114.3071 508.8570 0.0000 30915.2943 -116768.6273 300.5803 -147683.9216 -116722.8409 299.9636 10.9163 19.8990 500971.3645 2.7763 2.8887
ENERGY: 15000 1620.3236 2332.2116 3178.0396 0.0000 -175621.4533 19991.8979 550.2548 0.0000 30955.9851 -116992.7406 300.9759 -147948.7258 -116958.6519 300.2185 -24.9663 28.3022 499358.8691 -5.0413 -4.8038
TCL: Setting parameter constraintScaling to 1.25
TCL: Running for 5000 steps
ETITLE: TS BOND ANGLE DIHED IMPRP ELECT VDW BOUNDARY MISC KINETIC TOTAL TEMP POTENTIAL TOTAL3 TEMPAVG PRESSURE GPRESSURE VOLUME PRESSAVG GPRESSAVG
ENERGY: 15000 1620.3236 2332.2116 3178.0396 0.0000 -175621.4533 19991.8979 275.1274 0.0000 30953.9775 -117269.8756 300.9564 -148223.8532 -117226.1354 300.9564 -106.9264 -45.9543 499358.8691 -106.9264 -45.9543
ENERGY: 16000 1577.1170 2353.0453 3179.6987 0.0000 -175608.0912 20078.1899 399.0046 0.0000 30510.7298 -117510.3058 296.6468 -148021.0357 -117464.6482 298.7454 -4.5078 6.1056 498430.7276 -6.8310 -6.7633
ENERGY: 17000 1685.1135 2348.3101 3173.9088 0.0000 -175871.1589 20216.2491 401.7599 0.0000 30784.8055 -117261.0120 299.3116 -148045.8175 -117227.8787 298.9755 -156.0211 -74.4616 499244.6213 7.5401 7.4923
ENERGY: 18000 1638.8008 2375.1956 3184.3794 0.0000 -175649.1807 19820.5068 431.3172 0.0000 30822.6456 -117376.3353 299.6795 -148198.9809 -117335.3803 299.5744 -153.6255 -6.7802 496622.6932 -13.7658 -13.8876
ENERGY: 19000 1654.2983 2379.8392 3180.4108 0.0000 -176388.6579 20230.2480 379.2853 0.0000 30993.1751 -117571.4013 301.3375 -148564.5764 -117527.0607 299.5806 -35.8546 -45.9524 496638.1521 -4.4023 -5.2001
ENERGY: 20000 1626.3865 2318.6399 3161.0524 0.0000 -175704.5554 20053.8546 400.0013 0.0000 30893.0766 -117251.5442 300.3643 -148144.6208 -117199.6050 299.5911 -33.0689 4.1196 498698.7267 14.1677 13.5047
TCL: Setting parameter constraintScaling to 0.625
TCL: Running for 5000 steps
ETITLE: TS BOND ANGLE DIHED IMPRP ELECT VDW BOUNDARY MISC KINETIC TOTAL TEMP POTENTIAL TOTAL3 TEMPAVG PRESSURE GPRESSURE VOLUME PRESSAVG GPRESSAVG
ENERGY: 20000 1626.3865 2318.6399 3161.0524 0.0000 -175704.5554 20053.8546 200.0006 0.0000 30891.0092 -117453.6122 300.3442 -148344.6214 -117409.5875 300.3442 -44.5322 -2.4623 498698.7267 -44.5322 -2.4623
ENERGY: 21000 1598.7243 2347.7564 3196.0518 0.0000 -175987.3580 20070.2160 315.7353 0.0000 31055.1245 -117403.7497 301.9398 -148458.8743 -117365.0434 299.9934 -18.8997 -3.9600 498908.3677 2.8625 3.1358
ENERGY: 22000 1680.0496 2396.7446 3187.9425 0.0000 -175816.8282 20063.9786 310.7246 0.0000 30701.2418 -117476.1464 298.4991 -148177.3882 -117427.7326 298.1789 -99.2652 -64.8805 498127.5665 -4.5666 -4.5351
ENERGY: 23000 1676.1376 2405.1059 3211.8707 0.0000 -176039.7716 20233.8494 317.3821 0.0000 31020.8911 -117174.5347 301.6070 -148195.4258 -117131.5787 299.9043 -106.1817 -28.9746 498771.5943 9.6144 9.0791
ENERGY: 24000 1648.2570 2419.6076 3182.5650 0.0000 -175648.4613 19944.1138 317.4837 0.0000 30702.2778 -117434.1564 298.5092 -148136.4342 -117395.4631 299.5381 -73.6489 53.1717 497751.5387 6.3422 6.4598
ENERGY: 25000 1655.5747 2322.3492 3188.0880 0.0000 -175906.0559 19979.6199 293.5903 0.0000 30763.6749 -117703.1588 299.1061 -148466.8338 -117664.8948 298.3827 -85.3470 -90.9288 497432.9876 1.5778 1.3078
TCL: Setting parameter constraintScaling to 0.3125
TCL: Running for 5000 steps
ETITLE: TS BOND ANGLE DIHED IMPRP ELECT VDW BOUNDARY MISC KINETIC TOTAL TEMP POTENTIAL TOTAL3 TEMPAVG PRESSURE GPRESSURE VOLUME PRESSAVG GPRESSAVG
ENERGY: 25000 1655.5747 2322.3492 3188.0880 0.0000 -175906.0559 19979.6199 146.7952 0.0000 30761.6268 -117852.0022 299.0862 -148613.6290 -117810.6505 299.0862 -137.1466 -140.3063 497432.9876 -137.1466 -140.3063
ENERGY: 26000 1599.4332 2426.1923 3204.7589 0.0000 -176160.8597 20218.3725 251.7174 0.0000 30753.4440 -117706.9413 299.0067 -148460.3854 -117667.7249 299.3890 23.0049 61.1244 498430.4518 3.9169 3.9649
ENERGY: 27000 1654.6937 2395.9034 3176.9127 0.0000 -176028.7699 20176.5911 245.5541 0.0000 30704.5851 -117674.5297 298.5316 -148379.1148 -117630.4196 299.1163 -71.7219 -44.2600 498764.3273 4.1775 4.4069
ENERGY: 28000 1677.2235 2446.4113 3178.4085 0.0000 -175598.6831 19908.5430 265.3565 0.0000 30853.9844 -117268.7558 299.9842 -148122.7403 -117222.5119 300.7976 -18.8987 6.1875 497808.5871 -4.1907 -4.2128
ENERGY: 29000 1626.6183 2377.7216 3179.7686 0.0000 -175840.5373 20112.9625 238.1560 0.0000 30920.8995 -117384.4107 300.6348 -148305.3103 -117343.8668 300.2856 -145.3593 -78.6493 498605.2164 4.1328 4.0002
ENERGY: 30000 1695.0323 2363.7205 3203.9447 0.0000 -175569.6041 20007.1721 269.6169 0.0000 30711.5414 -117318.5761 298.5992 -148030.1175 -117277.3167 301.0350 -64.7445 -73.3024 498345.1087 1.5381 1.6872
TCL: Setting parameter constraintScaling to 0.15625
TCL: Running for 5000 steps
ETITLE: TS BOND ANGLE DIHED IMPRP ELECT VDW BOUNDARY MISC KINETIC TOTAL TEMP POTENTIAL TOTAL3 TEMPAVG PRESSURE GPRESSURE VOLUME PRESSAVG GPRESSAVG
ENERGY: 30000 1695.0323 2363.7205 3203.9447 0.0000 -175569.6041 20007.1721 134.8084 0.0000 30709.4886 -117455.4374 298.5793 -148164.9259 -117414.3076 298.5793 -99.6092 -95.9617 498345.1087 -99.6092 -95.9617
ENERGY: 31000 1660.9668 2340.1233 3198.9144 0.0000 -175469.8026 19902.4742 196.6550 0.0000 30715.5196 -117455.1493 298.6379 -148170.6689 -117409.9838 300.0097 -71.4878 -132.5828 498756.0231 5.7656 5.3221
ENERGY: 32000 1669.1914 2408.4026 3200.9942 0.0000 -175546.3172 19878.9876 213.1129 0.0000 31005.3008 -117170.3277 301.4554 -148175.6286 -117120.4599 300.0222 56.8611 50.4101 498406.0553 6.6546 7.2195
ENERGY: 33000 1658.6047 2366.8096 3205.1951 0.0000 -175855.0612 20025.7577 217.1935 0.0000 30947.2871 -117434.2135 300.8913 -148381.5006 -117388.5872 300.5056 -70.8273 7.1104 497128.9652 5.0137 4.8498
ENERGY: 34000 1663.3476 2432.9882 3194.2170 0.0000 -175462.4283 19841.9122 201.8436 0.0000 30718.2518 -117409.8680 298.6645 -148128.1198 -117369.3124 299.8954 -16.2483 3.6509 496642.5137 -0.3814 -0.1937
ENERGY: 35000 1675.0466 2416.8056 3210.1159 0.0000 -175634.3455 20005.5360 217.3197 0.0000 30788.6350 -117320.8868 299.3488 -148109.5218 -117284.7464 299.8139 -89.7123 -24.3335 497785.8476 -3.5527 -4.1635
TCL: Setting parameter constraintScaling to 0.078125
TCL: Running for 5000 steps
ETITLE: TS BOND ANGLE DIHED IMPRP ELECT VDW BOUNDARY MISC KINETIC TOTAL TEMP POTENTIAL TOTAL3 TEMPAVG PRESSURE GPRESSURE VOLUME PRESSAVG GPRESSAVG
ENERGY: 35000 1675.0466 2416.8056 3210.1159 0.0000 -175634.3455 20005.5360 108.6599 0.0000 30786.6077 -117431.5739 299.3291 -148218.1816 -117391.0647 299.3291 -87.4883 -26.1077 497785.8476 -87.4883 -26.1077
ENERGY: 36000 1648.0503 2395.5506 3201.9415 0.0000 -175874.6077 20066.9927 146.1200 0.0000 30806.1379 -117609.8146 299.5190 -148415.9525 -117567.9256 299.8637 -115.6344 -110.9490 499134.8515 11.0413 11.5270
ENERGY: 37000 1607.7702 2403.4807 3198.0799 0.0000 -175646.8199 20044.8490 155.5174 0.0000 30580.5980 -117656.5246 297.3261 -148237.1226 -117621.7005 299.0127 37.3451 -28.2860 497449.7951 -4.8547 -4.9541
ENERGY: 38000 1654.2633 2404.8332 3222.2315 0.0000 -176108.8943 20116.2924 168.5528 0.0000 30685.0641 -117857.6570 298.3418 -148542.7212 -117808.2321 298.8348 -108.4217 -40.2620 496925.5886 -2.5658 -2.5126
ENERGY: 39000 1614.9485 2413.3923 3219.0559 0.0000 -176382.2091 20287.7597 170.6158 0.0000 30751.3770 -117925.0599 298.9866 -148676.4368 -117875.5901 299.5620 -93.5968 -33.8363 496985.5666 14.2353 14.7008
ENERGY: 40000 1616.8696 2406.7200 3201.4863 0.0000 -176240.9545 20211.6767 164.6931 0.0000 30859.1268 -117780.3819 300.0342 -148639.5087 -117740.0020 299.0184 -107.1619 -56.8956 498693.8761 9.2422 8.8699
TCL: Setting parameter constraintScaling to 0.0390625
TCL: Running for 5000 steps
ETITLE: TS BOND ANGLE DIHED IMPRP ELECT VDW BOUNDARY MISC KINETIC TOTAL TEMP POTENTIAL TOTAL3 TEMPAVG PRESSURE GPRESSURE VOLUME PRESSAVG GPRESSAVG
ENERGY: 40000 1616.8696 2406.7200 3201.4863 0.0000 -176240.9545 20211.6767 82.3466 0.0000 30857.0920 -117864.7633 300.0144 -148721.8553 -117820.5582 300.0144 -115.5710 -71.3784 498693.8761 -115.5710 -71.3784
ENERGY: 41000 1687.9617 2399.9593 3236.3806 0.0000 -176057.2136 20190.7935 116.3152 0.0000 30435.9623 -117989.8410 295.9199 -148425.8033 -117946.0769 298.7212 -100.6691 -115.3456 497989.8087 -0.2524 -0.3240
ENERGY: 42000 1621.8423 2398.8182 3209.7601 0.0000 -176100.1020 20188.2570 124.5812 0.0000 30974.7154 -117582.1278 301.1580 -148556.8432 -117528.8766 298.4681 39.8467 11.5626 497744.5981 2.4722 1.8044
ENERGY: 43000 1668.7182 2321.9937 3239.9168 0.0000 -175903.9553 20086.8615 132.1551 0.0000 30750.2208 -117704.0893 298.9753 -148454.3101 -117663.9119 298.5801 103.5426 47.7112 496558.3089 7.5049 7.2998
ENERGY: 44000 1665.7962 2388.7742 3206.9768 0.0000 -175933.6046 20203.9107 133.7897 0.0000 30764.1562 -117570.2007 299.1108 -148334.3569 -117525.5933 300.1337 -30.6047 -2.1586 496261.8824 5.3439 5.4469
ENERGY: 45000 1584.8480 2404.4665 3196.1861 0.0000 -175573.1388 19851.4918 132.1884 0.0000 30731.4367 -117672.5214 298.7927 -148403.9581 -117626.7379 301.0531 175.1216 106.7803 496024.7082 -2.7661 -2.5638
TCL: Setting parameter constraintScaling to 0.01953125
TCL: Running for 5000 steps
ETITLE: TS BOND ANGLE DIHED IMPRP ELECT VDW BOUNDARY MISC KINETIC TOTAL TEMP POTENTIAL TOTAL3 TEMPAVG PRESSURE GPRESSURE VOLUME PRESSAVG GPRESSAVG
ENERGY: 45000 1584.8480 2404.4665 3196.1861 0.0000 -175573.1388 19851.4918 66.0942 0.0000 30729.3781 -117740.6742 298.7727 -148470.0523 -117696.3818 298.7727 150.1889 90.1449 496024.7082 150.1889 90.1449
ENERGY: 46000 1633.1340 2437.6998 3215.1938 0.0000 -176103.7895 20258.2782 75.1487 0.0000 30847.3980 -117636.9371 299.9201 -148484.3350 -117599.9395 300.1147 18.0873 62.4493 496453.2665 -4.6864 -4.8642
ENERGY: 47000 1588.0409 2346.4388 3206.7944 0.0000 -175919.2644 20049.4812 84.9764 0.0000 30705.4972 -117938.0355 298.5405 -148643.5327 -117896.5537 298.9833 -66.2359 -10.7356 495889.4469 -7.1422 -6.6307
ENERGY: 48000 1654.3315 2426.3841 3193.2264 0.0000 -175861.8430 19890.6374 87.0481 0.0000 31018.1990 -117592.0166 301.5808 -148610.2157 -117529.7390 299.6077 -61.2225 -1.7009 496285.5735 -2.4750 -2.6489
ENERGY: 49000 1631.4703 2453.4276 3194.8721 0.0000 -175900.2588 20003.0146 84.8066 0.0000 30576.4883 -117956.1794 297.2862 -148532.6676 -117902.3673 299.3536 -95.8486 -32.0256 495247.3805 -7.4474 -7.4169
ENERGY: 50000 1612.7378 2385.5193 3165.0437 0.0000 -176027.2811 20007.3182 92.0624 0.0000 30781.9553 -117982.6444 299.2839 -148764.5998 -117951.9111 299.1951 4.2101 96.7588 495379.9652 -1.6859 -1.5202
TCL: Setting parameter constraintScaling to 0
TCL: Running for 5000 steps
ETITLE: TS BOND ANGLE DIHED IMPRP ELECT VDW BOUNDARY MISC KINETIC TOTAL TEMP POTENTIAL TOTAL3 TEMPAVG PRESSURE GPRESSURE VOLUME PRESSAVG GPRESSAVG
ENERGY: 50000 1612.7378 2385.5193 3165.0437 0.0000 -176027.2811 20007.3182 0.0000 0.0000 30779.9094 -118076.7527 299.2640 -148856.6621 -118032.5440 299.2640 -1.2478 83.3659 495379.9652 -1.2478 83.3659
ENERGY: 51000 1632.7044 2440.4286 3169.4333 0.0000 -176101.3233 20186.3063 0.0000 0.0000 30793.1908 -117879.2598 299.3931 -148672.4506 -117845.6252 300.0653 72.5903 67.5061 495747.9344 9.5967 10.0267
ENERGY: 52000 1655.2496 2454.6765 3191.8915 0.0000 -176273.8412 20077.1866 0.0000 0.0000 30911.9163 -117982.9207 300.5474 -148894.8370 -117927.3054 299.6852 -141.2277 7.1376 495805.9366 -0.5199 -0.4642
ENERGY: 53000 1633.3421 2417.2640 3211.1057 0.0000 -175946.8093 19919.8893 0.0000 0.0000 30693.5771 -118071.6311 298.4246 -148765.2083 -118019.2345 299.6637 39.7939 17.2677 496244.6631 -8.7691 -8.7315
ENERGY: 54000 1643.4269 2458.7662 3206.2479 0.0000 -176148.9953 20096.9470 0.0000 0.0000 30943.4097 -117800.1975 300.8536 -148743.6072 -117750.4052 300.4874 -35.0917 -51.9457 494603.9897 -5.4995 -6.5395
ENERGY: 55000 1647.8888 2385.8025 3205.8194 0.0000 -176076.8502 19968.4776 0.0000 0.0000 30759.8063 -118109.0555 299.0685 -148868.8618 -118062.8632 298.6330 -2.0321 5.2032 495849.8645 -3.1227 -2.9815
