Info: SIMULATION PARAMETERS:
Info: TIMESTEP               1
Info: NUMBER OF STEPS        0
Info: STEPS PER CYCLE        10
Info: PERIODIC CELL BASIS 1  72.449 0 0
Info: PERIODIC CELL BASIS 2  0 93.247 0
Info: PERIODIC CELL BASIS 3  0 0 79.185
Info: PERIODIC CELL CENTER   -0.248 -0.156 -0.047
Info: WRAPPING WATERS AROUND PERIODIC BOUNDARIES ON OUTPUT.
Info: WRAPPING ALL CLUSTERS AROUND PERIODIC BOUNDARIES ON OUTPUT.
Info: FIRST LDB TIMESTEP     50
Info: LAST LDB TIMESTEP     -1
Info: HOM BACKGROUND SCALING 1
Info: PME BACKGROUND SCALING 1
Info: MIN ATOMS PER PATCH    40
Info: VELOCITY FILE          ../replicas/rep117/equilibration/eq1.vel
Info: CENTER OF MASS MOVING INITIALLY? NO
Info: DIELECTRIC             1
Info: EXCLUDE                SCALED ONE-FOUR
Info: 1-4 ELECTROSTATICS SCALED BY 0.833333
Info: MODIFIED 1-4 VDW PARAMETERS WILL BE USED
Info: DCD FILENAME           ../replicas/rep117/equilibration/eq2.dcd
Info: DCD FREQUENCY          5000
Info: DCD FIRST STEP         5000
Info: DCD FILE WILL CONTAIN UNIT CELL DATA
Info: XST FILENAME           ../replicas/rep117/equilibration/eq2.xst
Info: XST FREQUENCY          5000
Info: NO VELOCITY DCD OUTPUT
Info: NO FORCE DCD OUTPUT
Info: OUTPUT FILENAME        ../replicas/rep117/equilibration/eq2
Info: RESTART FILENAME       ../replicas/rep117/equilibration/eq2.restart
Info: RESTART FREQUENCY      5000
Info: BINARY RESTART FILES WILL BE USED
Info: SWITCHING ACTIVE
Info: SWITCHING ON           10
Info: SWITCHING OFF          12
Info: PAIRLIST DISTANCE      13.5
Info: PAIRLIST SHRINK RATE   0.01
Info: PAIRLIST GROW RATE     0.01
Info: PAIRLIST TRIGGER       0.3
Info: PAIRLISTS PER CYCLE    2
Info: PAIRLISTS ENABLED
Info: MARGIN                 0.48
Info: HYDROGEN GROUP CUTOFF  2.5
Info: PATCH DIMENSION        16.48
Info: ENERGY OUTPUT STEPS    500
Info: CROSSTERM ENERGY INCLUDED IN DIHEDRAL
Info: TIMING OUTPUT STEPS    5000
Info: PRESSURE OUTPUT STEPS  500
Info: HARMONIC CONSTRAINTS ACTIVE
Info: HARMONIC CONS EXP      2
Info: HARMONIC CONS SCALING  10
Info: LANGEVIN DYNAMICS ACTIVE
Info: LANGEVIN TEMPERATURE   300
Info: LANGEVIN USING BBK INTEGRATOR
Info: LANGEVIN DAMPING COEFFICIENT IS 5 INVERSE PS
Info: LANGEVIN DYNAMICS NOT APPLIED TO HYDROGENS
Info: BERENDSEN PRESSURE COUPLING ACTIVE
Info:     TARGET PRESSURE IS 1 BAR
Info:     COMPRESSIBILITY ESTIMATE IS 4.57e-05 BAR^(-1)
Info:     RELAXATION TIME IS 100 FS
Info:     APPLIED EVERY 2 STEPS
Info:     PRESSURE CONTROL IS GROUP-BASED
Info:       CELL FLUCTUATION IS ISOTROPIC
Info: PARTICLE MESH EWALD (PME) ACTIVE
Info: PME TOLERANCE               1e-06
Info: PME EWALD COEFFICIENT       0.257952
Info: PME INTERPOLATION ORDER     4
Info: PME GRID DIMENSIONS         80 96 80
Info: PME MAXIMUM GRID SPACING    1
Info: FULL ELECTROSTATIC EVALUATION FREQUENCY      2
Info: USING VERLET I (r-RESPA) MTS SCHEME.
Info: C1 SPLITTING OF LONG RANGE ELECTROSTATICS
Info: PLACING ATOMS IN PATCHES BY HYDROGEN GROUPS
Info: RIGID BONDS TO HYDROGEN : WATER
Info:         ERROR TOLERANCE : 1e-05
Info:          MAX ITERATIONS : 100
Info: RIGID WATER USING SETTLE ALGORITHM
Info: RANDOM NUMBER SEED     1503694447
Info: USE HYDROGEN BONDS?    NO
Info: Using AMBER format force field!
Info: AMBER PARM FILE        ../build/complex.top
Info: COORDINATE PDB         ../replicas/rep117/equilibration/eq1.coor
Info: Exclusions in PARM file will be ignored!
Info: SCNB (VDW SCALING)     2
Info: USING ARITHMETIC MEAN TO COMBINE L-J SIGMA PARAMETERS
Info: SUMMARY OF PARAMETERS:
Info: 71 BONDS
Info: 145 ANGLES
Info: 76 DIHEDRAL
Info: 0 IMPROPER
Info: 0 CROSSTERM
Info: 0 VDW
Info: 190 VDW_PAIRS
Info: 0 NBTHOLE_PAIRS
Info: STRUCTURE SUMMARY:
Info: 49394 ATOMS
Info: 49448 BONDS
Info: 8698 ANGLES
Info: 18780 DIHEDRALS
Info: 0 IMPROPERS
Info: 0 CROSSTERMS
Info: 0 EXCLUSIONS
Info: 2336 CONSTRAINTS
Info: 44667 RIGID BONDS
Info: 103515 DEGREES OF FREEDOM
Info: 17225 HYDROGEN GROUPS
Info: 4 ATOMS IN LARGEST HYDROGEN GROUP
Info: 17225 MIGRATION GROUPS
Info: 4 ATOMS IN LARGEST MIGRATION GROUP
Info: TOTAL MASS = 301478 amu
Info: TOTAL CHARGE = 1.00115e-05 e
Info: MASS DENSITY = 0.935846 g/cm^3
Info: ATOM DENSITY = 0.0923345 atoms/A^3
Info: ADDED 70656 IMPLICIT EXCLUSIONS
Info: NONBONDED TABLE R-SQUARED SPACING: 0.0625
Info: NONBONDED TABLE SIZE: 769 POINTS
Info: REMOVING COM VELOCITY -0.00462171 -0.0192203 -0.0295939
TCL: Running for 5000 steps
ETITLE: TS BOND ANGLE DIHED IMPRP ELECT VDW BOUNDARY MISC KINETIC TOTAL TEMP POTENTIAL TOTAL3 TEMPAVG PRESSURE GPRESSURE VOLUME PRESSAVG GPRESSAVG
ENERGY: 0 399.2371 1227.0328 2893.0720 0.0000 -212720.2556 29558.5416 0.0000 0.0000 10032.5604 -168609.8118 97.5436 -178642.3721 -168600.0511 97.5436 -2334.1784 -2423.8627 534946.2959 -2334.1784 -2423.8627
ENERGY: 1000 1251.3842 1964.7572 3081.0407 0.0000 -193711.2091 26581.5767 749.0367 0.0000 24042.7580 -136040.6557 233.7606 -160083.4137 -136016.1130 218.8320 6.6067 -21.2811 522762.6832 -4.1069 -4.4491
ENERGY: 2000 1459.4173 2156.2201 3114.8518 0.0000 -184277.4625 23351.1171 814.7501 0.0000 27954.6215 -125426.4846 271.7945 -153381.1061 -125381.9331 264.0933 -31.1276 20.0296 515485.5455 -13.9559 -13.9719
ENERGY: 3000 1515.4880 2215.1814 3102.9687 0.0000 -178974.9453 21354.9148 783.2470 0.0000 29544.8282 -120458.3171 287.2556 -150003.1453 -120416.5064 284.8295 -52.3754 19.1786 509578.4521 -31.0161 -30.9595
ENERGY: 4000 1532.2453 2221.2364 3123.7911 0.0000 -176938.9363 20761.5897 797.5075 0.0000 30186.4170 -118316.1493 293.4936 -148502.5663 -118268.9234 292.8891 27.9320 -30.4291 506383.5910 -3.8584 -4.0282
ENERGY: 5000 1586.1844 2195.0119 3121.9384 0.0000 -175842.7712 20167.1608 793.6477 0.0000 30462.5303 -117516.2977 296.1782 -147978.8279 -117467.5893 295.7754 -136.4358 -12.3526 505412.9220 -3.4795 -3.0834
TCL: Setting parameter constraintScaling to 5.0
TCL: Running for 5000 steps
ETITLE: TS BOND ANGLE DIHED IMPRP ELECT VDW BOUNDARY MISC KINETIC TOTAL TEMP POTENTIAL TOTAL3 TEMPAVG PRESSURE GPRESSURE VOLUME PRESSAVG GPRESSAVG
ENERGY: 5000 1586.1844 2195.0119 3121.9384 0.0000 -175842.7712 20167.1608 396.8239 0.0000 30460.4712 -117915.1806 296.1582 -148375.6518 -117870.7926 296.1582 -257.2848 -139.1190 505412.9220 -257.2848 -139.1190
ENERGY: 6000 1596.4894 2303.0585 3134.0557 0.0000 -175853.7537 20396.8795 645.7760 0.0000 30689.2200 -117088.2746 298.3822 -147777.4946 -117044.7277 298.1861 -60.4806 -15.8116 504139.0933 6.7527 7.1049
ENERGY: 7000 1556.7561 2294.8488 3136.7367 0.0000 -175586.6403 20280.4861 616.1456 0.0000 30796.1264 -116905.5406 299.4216 -147701.6670 -116868.8134 298.5072 -39.8092 -48.5085 503650.1781 6.2992 6.6091
ENERGY: 8000 1588.4516 2324.8704 3159.3697 0.0000 -175259.9435 20104.1638 665.0615 0.0000 30719.9306 -116698.0958 298.6808 -147418.0264 -116657.4271 299.3448 -28.4263 8.2187 504260.2833 8.5491 8.6966
ENERGY: 9000 1609.4972 2330.7232 3137.9589 0.0000 -174939.3066 19900.6482 642.1061 0.0000 30738.3416 -116580.0314 298.8598 -147318.3731 -116544.6329 299.7776 -45.6800 -18.9509 504614.0267 7.0366 7.1346
ENERGY: 10000 1596.2562 2282.6746 3147.9988 0.0000 -175947.6265 20359.2278 642.9544 0.0000 30928.2403 -116990.2744 300.7061 -147918.5148 -116951.2380 300.2236 -9.7399 14.5564 501847.5447 -11.5862 -11.6517
TCL: Setting parameter constraintScaling to 2.5
TCL: Running for 5000 steps
ETITLE: TS BOND ANGLE DIHED IMPRP ELECT VDW BOUNDARY MISC KINETIC TOTAL TEMP POTENTIAL TOTAL3 TEMPAVG PRESSURE GPRESSURE VOLUME PRESSAVG GPRESSAVG
ENERGY: 10000 1596.2562 2282.6746 3147.9988 0.0000 -175947.6265 20359.2278 321.4772 0.0000 30926.2041 -117313.7878 300.6864 -148239.9919 -117268.9037 300.6864 -10.8862 7.7444 501847.5447 -10.8862 7.7444
ENERGY: 11000 1599.9620 2314.2646 3195.3995 0.0000 -175793.4887 20267.8290 482.8907 0.0000 31132.5567 -116800.5862 302.6927 -147933.1429 -116755.7338 299.8827 -64.2534 -35.6389 501078.2898 0.4860 0.5448
ENERGY: 12000 1662.4205 2399.2513 3140.2663 0.0000 -175554.9226 19972.0177 521.6253 0.0000 30995.1836 -116864.1580 301.3570 -147859.3416 -116825.4152 299.6509 -104.6277 -33.4715 500630.8192 -7.0173 -7.5147
ENERGY: 13000 1642.9545 2310.0287 3151.1649 0.0000 -175367.7154 20205.1042 521.0103 0.0000 30824.5656 -116712.8872 299.6981 -147537.4528 -116670.2077 300.3212 52.8301 95.8778 501365.6626 -3.1201 -2.9959
ENERGY: 14000 1606.2422 2384.1592 3181.4597 0.0000 -175746.8697 20098.8802 489.4498 0.0000 30946.7021 -117039.9764 300.8856 -147986.6785 -116985.8317 300.9810 12.1803 -23.9671 500824.3198 1.0262 0.2621
ENERGY: 15000 1638.0485 2373.6102 3169.5403 0.0000 -175098.8884 19729.9363 501.0751 0.0000 30770.3078 -116916.3700 299.1706 -147686.6778 -116867.9898 299.7119 48.3679 11.8625 500798.4778 -7.9192 -7.8854
TCL: Setting parameter constraintScaling to 1.25
TCL: Running for 5000 steps
ETITLE: TS BOND ANGLE DIHED IMPRP ELECT VDW BOUNDARY MISC KINETIC TOTAL TEMP POTENTIAL TOTAL3 TEMPAVG PRESSURE GPRESSURE VOLUME PRESSAVG GPRESSAVG
ENERGY: 15000 1638.0485 2373.6102 3169.5403 0.0000 -175098.8884 19729.9363 250.5376 0.0000 30768.2630 -117168.9524 299.1507 -147937.2154 -117125.3439 299.1507 -63.0161 -105.1977 500798.4778 -63.0161 -105.1977
ENERGY: 16000 1593.5027 2426.4795 3153.3623 0.0000 -176187.3590 20452.3450 393.0213 0.0000 30636.7717 -117531.8765 297.8723 -148168.6482 -117480.3370 298.2334 -86.3842 -26.0215 499476.2372 -11.1244 -10.9838
ENERGY: 17000 1621.1893 2380.6515 3167.3212 0.0000 -175734.9328 19998.1758 389.2589 0.0000 31030.7121 -117147.6242 301.7025 -148178.3362 -117103.3248 299.8010 -175.5402 -101.7591 499942.8157 4.8953 4.2630
ENERGY: 18000 1635.1385 2390.6868 3177.1329 0.0000 -175948.2431 20088.1359 392.7899 0.0000 31033.2700 -117231.0890 301.7273 -148264.3590 -117181.1854 299.1034 30.1205 -8.8059 500876.6609 11.4189 11.9616
ENERGY: 19000 1623.4131 2366.3107 3172.3083 0.0000 -175885.5530 20245.4261 422.3717 0.0000 30771.7293 -117283.9938 299.1844 -148055.7232 -117244.0131 300.3798 -36.3565 23.6098 497559.9303 -12.9297 -12.9444
ENERGY: 20000 1580.3202 2404.4471 3140.1382 0.0000 -175615.5888 19838.0643 399.0625 0.0000 30762.7095 -117490.8470 299.0967 -148253.5564 -117446.0699 298.9146 -18.1368 -39.6667 498183.0608 10.1567 9.7367
TCL: Setting parameter constraintScaling to 0.625
TCL: Running for 5000 steps
ETITLE: TS BOND ANGLE DIHED IMPRP ELECT VDW BOUNDARY MISC KINETIC TOTAL TEMP POTENTIAL TOTAL3 TEMPAVG PRESSURE GPRESSURE VOLUME PRESSAVG GPRESSAVG
ENERGY: 20000 1580.3202 2404.4471 3140.1382 0.0000 -175615.5888 19838.0643 199.5312 0.0000 30760.6733 -117692.4144 299.0769 -148453.0877 -117649.5251 299.0769 -75.4586 -109.2721 498183.0608 -75.4586 -109.2721
ENERGY: 21000 1613.0071 2412.2979 3195.7525 0.0000 -175779.4476 20090.9517 310.8714 0.0000 30777.7325 -117378.8345 299.2428 -148156.5670 -117338.4020 299.0697 12.4674 32.9286 498020.0358 -5.3763 -5.4365
ENERGY: 22000 1607.5538 2381.8531 3213.5171 0.0000 -175780.2418 20047.1700 337.1404 0.0000 30734.7575 -117458.2499 298.8250 -148193.0074 -117420.3199 300.1939 -83.4449 -68.7735 499237.9619 7.9706 8.1336
ENERGY: 23000 1633.9780 2409.6881 3192.5115 0.0000 -175574.0397 20112.8259 300.3040 0.0000 30811.2449 -117113.4875 299.5686 -147924.7324 -117080.3747 299.7797 96.1269 -20.7785 500255.0747 14.6254 14.7547
ENERGY: 24000 1678.5241 2329.7224 3161.4427 0.0000 -175885.3667 20142.6373 323.5564 0.0000 30926.8957 -117322.5880 300.6931 -148249.4838 -117283.9407 300.4830 -15.8382 -8.3662 497179.3712 -15.0471 -14.8535
ENERGY: 25000 1689.3668 2369.4626 3185.1381 0.0000 -175774.1072 20099.8901 313.6580 0.0000 30677.3520 -117439.2396 298.2668 -148116.5915 -117397.3282 300.8317 -128.4829 -17.6368 498711.5827 11.4842 11.7580
TCL: Setting parameter constraintScaling to 0.3125
TCL: Running for 5000 steps
ETITLE: TS BOND ANGLE DIHED IMPRP ELECT VDW BOUNDARY MISC KINETIC TOTAL TEMP POTENTIAL TOTAL3 TEMPAVG PRESSURE GPRESSURE VOLUME PRESSAVG GPRESSAVG
ENERGY: 25000 1689.3668 2369.4626 3185.1381 0.0000 -175774.1072 20099.8901 156.8290 0.0000 30675.3189 -117598.1017 298.2471 -148273.4205 -117555.4897 298.2471 -165.6655 -55.4158 498711.5827 -165.6655 -55.4158
ENERGY: 26000 1652.8851 2375.1575 3214.9879 0.0000 -176005.6436 19980.8790 256.3267 0.0000 30706.0492 -117819.3581 298.5459 -148525.4073 -117779.0573 299.3789 -85.1845 21.4457 496095.5704 -12.3687 -12.3398
ENERGY: 27000 1652.4421 2365.9976 3214.8421 0.0000 -175918.2948 20045.8487 248.5237 0.0000 30921.8152 -117468.8254 300.6437 -148390.6406 -117420.6590 299.9782 -108.0910 -129.4987 497102.1016 -1.8893 -1.6238
ENERGY: 28000 1637.6260 2430.7699 3187.7516 0.0000 -176125.9012 20241.0228 250.8006 0.0000 30892.4569 -117485.4735 300.3582 -148377.9304 -117438.2350 299.6561 44.1557 50.4761 497837.1338 12.2599 11.8899
ENERGY: 29000 1584.1362 2379.6745 3220.4027 0.0000 -175515.9250 19770.7083 267.6216 0.0000 30801.5505 -117491.8313 299.4744 -148293.3818 -117444.8553 299.0552 -53.6860 10.2876 497237.8348 -5.2438 -4.0494
ENERGY: 30000 1616.0182 2382.4759 3185.4835 0.0000 -175933.2058 20122.7147 248.3595 0.0000 30716.2780 -117661.8760 298.6453 -148378.1540 -117621.0020 299.1224 62.6483 77.6962 497550.9617 -2.4922 -2.7233
TCL: Setting parameter constraintScaling to 0.15625
TCL: Running for 5000 steps
ETITLE: TS BOND ANGLE DIHED IMPRP ELECT VDW BOUNDARY MISC KINETIC TOTAL TEMP POTENTIAL TOTAL3 TEMPAVG PRESSURE GPRESSURE VOLUME PRESSAVG GPRESSAVG
ENERGY: 30000 1616.0182 2382.4759 3185.4835 0.0000 -175933.2058 20122.7147 124.1798 0.0000 30714.2421 -117788.0917 298.6255 -148502.3338 -117745.3531 298.6255 21.6229 37.3583 497550.9617 21.6229 37.3583
ENERGY: 31000 1661.4984 2410.2333 3165.5625 0.0000 -175655.0022 20008.3002 197.5668 0.0000 30847.1289 -117364.7120 299.9175 -148211.8409 -117315.4337 299.6333 -85.5840 -50.9579 497938.4111 1.4245 1.5919
ENERGY: 32000 1696.7756 2446.2909 3223.5265 0.0000 -175898.4158 19952.5819 188.6970 0.0000 31079.8399 -117310.7041 302.1801 -148390.5440 -117258.5941 300.4766 -65.0590 -64.0907 497319.8274 0.0004 -0.8870
ENERGY: 33000 1702.2644 2407.4096 3200.7292 0.0000 -176059.5087 20071.3024 195.6528 0.0000 30792.0819 -117690.0685 299.3823 -148482.1504 -117645.6696 299.3160 -117.5199 -37.1601 496998.2663 -2.0705 -2.0398
ENERGY: 34000 1624.8823 2433.5851 3227.8546 0.0000 -175995.1043 20098.6275 196.3295 0.0000 30762.7547 -117651.0706 299.0972 -148413.8254 -117599.8247 299.4480 -40.4928 -42.4111 498225.4184 -4.2161 -4.6126
ENERGY: 35000 1615.0966 2389.1696 3145.4397 0.0000 -175872.7926 20131.9335 219.0542 0.0000 30799.1967 -117572.9023 299.4515 -148372.0990 -117520.2007 300.4904 -75.8688 -53.4463 497570.0717 -2.2500 -2.4159
TCL: Setting parameter constraintScaling to 0.078125
TCL: Running for 5000 steps
ETITLE: TS BOND ANGLE DIHED IMPRP ELECT VDW BOUNDARY MISC KINETIC TOTAL TEMP POTENTIAL TOTAL3 TEMPAVG PRESSURE GPRESSURE VOLUME PRESSAVG GPRESSAVG
ENERGY: 35000 1615.0966 2389.1696 3145.4397 0.0000 -175872.7926 20131.9335 109.5271 0.0000 30797.1589 -117684.4672 299.4317 -148481.6261 -117643.5502 299.4317 -63.3451 -48.9646 497570.0717 -63.3451 -48.9646
ENERGY: 36000 1622.4018 2422.2338 3228.4296 0.0000 -175968.0144 20029.1618 146.3083 0.0000 30862.9833 -117656.4958 300.0717 -148519.4791 -117601.9408 299.9425 -91.7180 -63.6832 496798.8630 -0.4307 -0.2919
ENERGY: 37000 1592.9222 2391.7031 3248.4149 0.0000 -176059.2147 20070.5414 156.4635 0.0000 30726.8908 -117872.2788 298.7485 -148599.1696 -117822.3154 298.8598 16.8976 30.5179 496807.9858 14.8343 15.2043
ENERGY: 38000 1649.9389 2469.9096 3235.1519 0.0000 -176209.2651 20116.5464 164.9853 0.0000 30672.3349 -117900.3981 298.2181 -148572.7330 -117854.8625 299.1402 40.4030 20.4148 497444.7478 9.4164 9.2683
ENERGY: 39000 1658.2792 2350.4514 3205.4559 0.0000 -176008.1468 20232.4255 176.0407 0.0000 30734.0226 -117651.4715 298.8178 -148385.4941 -117610.9644 299.3410 38.2752 33.1039 497778.5038 6.8513 7.1893
ENERGY: 40000 1582.1061 2393.5502 3222.3980 0.0000 -176293.4559 20108.0298 155.6275 0.0000 30676.9869 -118154.7573 298.2633 -148831.7443 -118098.2026 298.0730 -47.2282 -29.3957 495855.2897 -18.1131 -17.9901
TCL: Setting parameter constraintScaling to 0.0390625
TCL: Running for 5000 steps
ETITLE: TS BOND ANGLE DIHED IMPRP ELECT VDW BOUNDARY MISC KINETIC TOTAL TEMP POTENTIAL TOTAL3 TEMPAVG PRESSURE GPRESSURE VOLUME PRESSAVG GPRESSAVG
ENERGY: 40000 1582.1061 2393.5502 3222.3980 0.0000 -176293.4559 20108.0298 77.8137 0.0000 30674.9387 -118234.6193 298.2434 -148909.5580 -118191.0457 298.2434 -59.8278 -37.1278 495855.2897 -59.8278 -37.1278
ENERGY: 41000 1613.8214 2408.6253 3188.5886 0.0000 -176203.8136 20108.4917 106.3395 0.0000 30838.3650 -117939.5821 299.8323 -148777.9471 -117892.5796 298.4681 -18.1318 5.8878 495101.6731 -2.8535 -2.8462
ENERGY: 42000 1644.7280 2352.2694 3238.1245 0.0000 -175759.2053 20027.6409 113.2126 0.0000 31001.8479 -117381.3820 301.4218 -148383.2299 -117332.5996 300.5071 -13.2042 -38.3674 496843.3994 12.3079 11.6590
ENERGY: 43000 1662.7216 2443.9060 3216.9337 0.0000 -175759.8538 19985.5965 123.2271 0.0000 30790.6744 -117536.7944 299.3686 -148327.4688 -117496.5072 300.0194 -75.2089 27.5836 496021.5950 0.4890 0.9169
ENERGY: 44000 1690.8031 2406.2561 3219.6526 0.0000 -175699.1431 19943.9674 123.0614 0.0000 30939.8562 -117375.5463 300.8191 -148315.4025 -117335.0805 300.8527 -115.4556 -64.6743 496890.1836 9.7889 9.8783
ENERGY: 45000 1649.8983 2369.4309 3190.6582 0.0000 -175768.0096 20142.1836 126.0685 0.0000 31078.8577 -117210.9123 302.1706 -148289.7701 -117169.0035 300.2496 -82.6212 -4.0054 498161.5471 3.0012 3.1701
TCL: Setting parameter constraintScaling to 0.01953125
TCL: Running for 5000 steps
ETITLE: TS BOND ANGLE DIHED IMPRP ELECT VDW BOUNDARY MISC KINETIC TOTAL TEMP POTENTIAL TOTAL3 TEMPAVG PRESSURE GPRESSURE VOLUME PRESSAVG GPRESSAVG
ENERGY: 45000 1649.8983 2369.4309 3190.6582 0.0000 -175768.0096 20142.1836 63.0342 0.0000 31076.8187 -117275.9856 302.1507 -148352.8043 -117229.7376 302.1507 -93.1518 -17.4287 498161.5471 -93.1518 -17.4287
ENERGY: 46000 1630.2199 2435.5578 3242.0718 0.0000 -176007.5487 20141.5856 80.2478 0.0000 30994.4611 -117483.4046 301.3500 -148477.8657 -117442.8359 300.7371 18.4196 90.1944 497286.9576 2.5651 2.6015
ENERGY: 47000 1585.4689 2356.7515 3183.8391 0.0000 -176259.8821 20241.9606 78.4364 0.0000 30649.1457 -118164.2799 297.9926 -148813.4256 -118111.0778 298.9304 18.1462 1.9685 496923.8769 -5.4203 -6.2461
ENERGY: 48000 1726.2371 2408.4073 3225.2760 0.0000 -176109.1456 20197.4559 83.4214 0.0000 31044.4324 -117423.9154 301.8359 -148468.3478 -117376.9039 300.1345 -83.1732 26.2076 496930.6961 -1.6322 -2.1205
ENERGY: 49000 1683.3312 2445.0608 3239.1913 0.0000 -175658.0984 20046.2602 78.6091 0.0000 30843.7405 -117321.9053 299.8846 -148165.6458 -117282.4234 299.7767 -15.8228 89.5358 497684.2339 2.9843 3.3680
ENERGY: 50000 1681.8969 2465.3976 3164.8141 0.0000 -175714.5580 20116.5560 89.7210 0.0000 31040.7024 -117155.4700 301.7996 -148196.1724 -117108.0544 299.5946 -7.1864 46.9379 498037.1629 -8.2137 -8.1807
TCL: Setting parameter constraintScaling to 0
TCL: Running for 5000 steps
ETITLE: TS BOND ANGLE DIHED IMPRP ELECT VDW BOUNDARY MISC KINETIC TOTAL TEMP POTENTIAL TOTAL3 TEMPAVG PRESSURE GPRESSURE VOLUME PRESSAVG GPRESSAVG
ENERGY: 50000 1681.8969 2465.3976 3164.8141 0.0000 -175714.5580 20116.5560 0.0000 0.0000 31038.6524 -117247.2410 301.7797 -148285.8934 -117203.8346 301.7797 -23.7873 27.5588 498037.1629 -23.7873 27.5588
ENERGY: 51000 1606.2931 2431.9622 3204.2758 0.0000 -176109.3666 20136.3280 0.0000 0.0000 30569.4209 -118161.0865 297.2175 -148730.5074 -118114.9704 299.0501 -10.5521 22.7215 498080.9827 -0.2186 -0.5161
ENERGY: 52000 1679.5072 2387.5503 3222.2793 0.0000 -175823.7851 20050.9322 0.0000 0.0000 30580.8550 -117902.6610 297.3286 -148483.5160 -117859.1230 298.6710 -114.3992 -90.4324 496354.0320 2.6103 2.7819
ENERGY: 53000 1682.8165 2412.6133 3218.2971 0.0000 -175703.4771 19929.4499 0.0000 0.0000 30976.5763 -117483.7240 301.1761 -148460.3002 -117438.3125 299.4061 3.4834 91.3423 496038.0207 -1.0072 -0.5253
ENERGY: 54000 1693.1362 2351.7023 3231.6250 0.0000 -175756.1673 20083.1483 0.0000 0.0000 30901.8832 -117494.6723 300.4499 -148396.5556 -117447.8761 299.8659 -10.3417 21.1939 496445.6583 -3.3336 -3.1272
ENERGY: 55000 1639.6108 2399.6781 3215.6822 0.0000 -175873.9938 19998.9248 0.0000 0.0000 30971.0071 -117649.0909 301.1220 -148620.0980 -117604.6896 299.8246 -37.3610 57.1791 496104.5916 -3.8581 -3.7608
