Info: SIMULATION PARAMETERS:
Info: TIMESTEP               2
Info: NUMBER OF STEPS        0
Info: STEPS PER CYCLE        10
Info: PERIODIC CELL BASIS 1  72.449 0 0
Info: PERIODIC CELL BASIS 2  0 93.247 0
Info: PERIODIC CELL BASIS 3  0 0 79.185
Info: PERIODIC CELL CENTER   -0.248 -0.156 -0.047
Info: WRAPPING WATERS AROUND PERIODIC BOUNDARIES ON OUTPUT.
Info: WRAPPING ALL CLUSTERS AROUND PERIODIC BOUNDARIES ON OUTPUT.
Info: FIRST LDB TIMESTEP     50
Info: LAST LDB TIMESTEP     -1
Info: HOM BACKGROUND SCALING 1
Info: PME BACKGROUND SCALING 1
Info: MIN ATOMS PER PATCH    40
Info: INITIAL TEMPERATURE    0
Info: CENTER OF MASS MOVING INITIALLY? NO
Info: DIELECTRIC             1
Info: EXCLUDE                SCALED ONE-FOUR
Info: 1-4 ELECTROSTATICS SCALED BY 0.833333
Info: MODIFIED 1-4 VDW PARAMETERS WILL BE USED
Info: NO DCD TRAJECTORY OUTPUT
Info: NO EXTENDED SYSTEM TRAJECTORY OUTPUT
Info: NO VELOCITY DCD OUTPUT
Info: NO FORCE DCD OUTPUT
Info: OUTPUT FILENAME        ../replicas/rep65/equilibration/eq0
Info: NO RESTART FILE
Info: SWITCHING ACTIVE
Info: SWITCHING ON           10
Info: SWITCHING OFF          12
Info: PAIRLIST DISTANCE      13.5
Info: PAIRLIST SHRINK RATE   0.01
Info: PAIRLIST GROW RATE     0.01
Info: PAIRLIST TRIGGER       0.3
Info: PAIRLISTS PER CYCLE    2
Info: PAIRLISTS ENABLED
Info: MARGIN                 0
Info: HYDROGEN GROUP CUTOFF  2.5
Info: PATCH DIMENSION        16
Info: ENERGY OUTPUT STEPS    500
Info: CROSSTERM ENERGY INCLUDED IN DIHEDRAL
Info: TIMING OUTPUT STEPS    5000
Info: PRESSURE OUTPUT STEPS  500
Info: HARMONIC CONSTRAINTS ACTIVE
Info: HARMONIC CONS EXP      2
Info: HARMONIC CONS SCALING  10
Info: CONJUGATE GRADIENT MINIMIZATION ACTIVE
Info: LINE MINIMIZATION GOAL = 0.001
Info: BABY STEP SIZE = 0.01
Info: TINY STEP SIZE = 1e-06
Info: PARTICLE MESH EWALD (PME) ACTIVE
Info: PME TOLERANCE               1e-06
Info: PME EWALD COEFFICIENT       0.257952
Info: PME INTERPOLATION ORDER     4
Info: PME GRID DIMENSIONS         80 96 80
Info: PME MAXIMUM GRID SPACING    1
Info: FULL ELECTROSTATIC EVALUATION FREQUENCY      2
Info: USING VERLET I (r-RESPA) MTS SCHEME.
Info: C1 SPLITTING OF LONG RANGE ELECTROSTATICS
Info: PLACING ATOMS IN PATCHES BY HYDROGEN GROUPS
Info: RIGID BONDS TO HYDROGEN : ALL
Info:         ERROR TOLERANCE : 1e-05
Info:          MAX ITERATIONS : 100
Info: RIGID WATER USING SETTLE ALGORITHM
Info: RANDOM NUMBER SEED     1503692282
Info: USE HYDROGEN BONDS?    NO
Info: Using AMBER format force field!
Info: AMBER PARM FILE        ../build/complex.top
Info: COORDINATE PDB         ../build/complex.pdb
Info: Exclusions in PARM file will be ignored!
Info: SCNB (VDW SCALING)     2
Info: USING ARITHMETIC MEAN TO COMBINE L-J SIGMA PARAMETERS
Info: SUMMARY OF PARAMETERS:
Info: 71 BONDS
Info: 145 ANGLES
Info: 76 DIHEDRAL
Info: 0 IMPROPER
Info: 0 CROSSTERM
Info: 0 VDW
Info: 190 VDW_PAIRS
Info: 0 NBTHOLE_PAIRS
Info: STRUCTURE SUMMARY:
Info: 49394 ATOMS
Info: 49448 BONDS
Info: 8698 ANGLES
Info: 18780 DIHEDRALS
Info: 0 IMPROPERS
Info: 0 CROSSTERMS
Info: 0 EXCLUSIONS
Info: 2336 CONSTRAINTS
Info: 47058 RIGID BONDS
Info: 101124 DEGREES OF FREEDOM
Info: 17225 HYDROGEN GROUPS
Info: 4 ATOMS IN LARGEST HYDROGEN GROUP
Info: 17225 MIGRATION GROUPS
Info: 4 ATOMS IN LARGEST MIGRATION GROUP
Info: TOTAL MASS = 301478 amu
Info: TOTAL CHARGE = 1.00115e-05 e
Info: MASS DENSITY = 0.935846 g/cm^3
Info: ATOM DENSITY = 0.0923345 atoms/A^3
Info: ADDED 70656 IMPLICIT EXCLUSIONS
Info: NONBONDED TABLE R-SQUARED SPACING: 0.0625
Info: NONBONDED TABLE SIZE: 769 POINTS
Info: REMOVING COM VELOCITY 0 0 0
TCL: Minimizing for 100 steps
ETITLE: TS BOND ANGLE DIHED IMPRP ELECT VDW BOUNDARY MISC KINETIC TOTAL TEMP POTENTIAL TOTAL3 TEMPAVG PRESSURE GPRESSURE VOLUME PRESSAVG GPRESSAVG
ENERGY: 0 155.4176 1012.2698 2855.7272 0.0000 -154496.7912 207729.2052 0.0468 0.0000 0.0000 57255.8754 0.0000 57255.8754 57255.8754 0.0000 116350.2532 86546.1670 534946.2959 116350.2532 86546.1670
ENERGY: 20 304.7560 935.7912 2893.4663 0.0000 -158672.9414 17936.6591 143.9455 0.0000 0.0000 -136458.3233 0.0000 -136458.3233 -136458.3233 0.0000 16523.9383 -239.4562 534946.2959 16523.9383 -239.4562
ENERGY: 40 198.7460 799.5730 2896.9273 0.0000 -162811.4523 16417.9539 221.3030 0.0000 0.0000 -142276.9491 0.0000 -142276.9491 -142276.9491 0.0000 15011.2705 -2135.4695 534946.2959 15011.2705 -2135.4695
ENERGY: 60 130.5281 715.3440 2898.2166 0.0000 -167496.1578 15446.7538 315.2796 0.0000 0.0000 -147990.0357 0.0000 -147990.0357 -147990.0357 0.0000 13793.8835 -3799.3989 534946.2959 13793.8835 -3799.3989
ENERGY: 80 431.2718 765.6304 2904.3788 0.0000 -169937.5363 15121.1516 372.0124 0.0000 0.0000 -150343.0913 0.0000 -150343.0913 -150343.0913 0.0000 13270.3292 -4577.2468 534946.2959 13270.3292 -4577.2468
ENERGY: 100 129.7128 708.0645 2904.2781 0.0000 -171050.0670 15018.6536 384.2001 0.0000 0.0000 -151905.1580 0.0000 -151905.1580 -151905.1580 0.0000 13092.9127 -4843.6313 534946.2959 13092.9127 -4843.6313
TCL: Setting parameter constraintScaling to 5.0
TCL: Minimizing for 100 steps
ETITLE: TS BOND ANGLE DIHED IMPRP ELECT VDW BOUNDARY MISC KINETIC TOTAL TEMP POTENTIAL TOTAL3 TEMPAVG PRESSURE GPRESSURE VOLUME PRESSAVG GPRESSAVG
ENERGY: 100 129.7128 708.0645 2904.2781 0.0000 -171050.0670 15018.6536 192.1001 0.0000 0.0000 -152097.2580 0.0000 -152097.2580 -152097.2580 0.0000 13703.5080 -22944.4547 534946.2959 13703.5080 -22944.4547
ENERGY: 120 118.6816 680.2874 2909.9066 0.0000 -172396.3111 14830.1207 259.9548 0.0000 0.0000 -153597.3600 0.0000 -153597.3600 -153597.3600 0.0000 13320.9479 -4756.3064 534946.2959 13320.9479 -4756.3064
ENERGY: 140 109.1476 671.1468 2912.0863 0.0000 -174830.2485 14716.1440 337.7304 0.0000 0.0000 -156083.9935 0.0000 -156083.9935 -156083.9935 0.0000 12908.9612 -5423.1427 534946.2959 12908.9612 -5423.1427
ENERGY: 160 125.8517 667.1506 2914.1925 0.0000 -175967.0563 14735.1347 362.9190 0.0000 0.0000 -157161.8077 0.0000 -157161.8077 -157161.8077 0.0000 12806.8942 -5642.3420 534946.2959 12806.8942 -5642.3420
ENERGY: 180 303.4859 659.6826 2917.2967 0.0000 -177408.7575 14815.0186 395.3835 0.0000 0.0000 -158317.8902 0.0000 -158317.8902 -158317.8902 0.0000 12699.3144 -5899.3113 534946.2959 12699.3144 -5899.3113
ENERGY: 200 109.2071 628.4689 2923.3573 0.0000 -179543.6217 15071.1181 441.8756 0.0000 0.0000 -160369.5946 0.0000 -160369.5946 -160369.5946 0.0000 12659.9913 -6159.8169 534946.2959 12659.9913 -6159.8169
TCL: Setting parameter constraintScaling to 2.5
TCL: Minimizing for 100 steps
ETITLE: TS BOND ANGLE DIHED IMPRP ELECT VDW BOUNDARY MISC KINETIC TOTAL TEMP POTENTIAL TOTAL3 TEMPAVG PRESSURE GPRESSURE VOLUME PRESSAVG GPRESSAVG
ENERGY: 200 109.2071 628.4689 2923.3573 0.0000 -179543.6217 15071.1181 220.9378 0.0000 0.0000 -160590.5324 0.0000 -160590.5324 -160590.5324 0.0000 13208.4104 -25278.9382 534946.2959 13208.4104 -25278.9382
ENERGY: 220 274.9158 652.0316 2925.2473 0.0000 -180394.5400 15108.7802 287.8837 0.0000 0.0000 -161145.6815 0.0000 -161145.6815 -161145.6815 0.0000 13000.2152 -5918.8490 534946.2959 13000.2152 -5918.8490
ENERGY: 240 144.6144 629.1377 2922.1000 0.0000 -181650.3080 15308.6935 331.5835 0.0000 0.0000 -162314.1788 0.0000 -162314.1788 -162314.1788 0.0000 12968.4586 -6080.7067 534946.2959 12968.4586 -6080.7067
ENERGY: 260 238.1745 648.2113 2922.1808 0.0000 -183602.8557 15750.8109 409.8472 0.0000 0.0000 -163633.6309 0.0000 -163633.6309 -163633.6309 0.0000 12997.1688 -6269.8825 534946.2959 12997.1688 -6269.8825
ENERGY: 280 182.7087 654.5646 2917.9254 0.0000 -184825.4156 16102.2633 430.8795 0.0000 0.0000 -164537.0740 0.0000 -164537.0740 -164537.0740 0.0000 13136.0618 -6273.1735 534946.2959 13136.0618 -6273.1735
ENERGY: 300 138.1886 658.3343 2924.8109 0.0000 -186099.6922 16512.2339 425.4796 0.0000 0.0000 -165440.6451 0.0000 -165440.6451 -165440.6451 0.0000 13328.3918 -6216.3762 534946.2959 13328.3918 -6216.3762
TCL: Setting parameter constraintScaling to 1.25
TCL: Minimizing for 100 steps
ETITLE: TS BOND ANGLE DIHED IMPRP ELECT VDW BOUNDARY MISC KINETIC TOTAL TEMP POTENTIAL TOTAL3 TEMPAVG PRESSURE GPRESSURE VOLUME PRESSAVG GPRESSAVG
ENERGY: 300 138.1886 658.3343 2924.8109 0.0000 -186099.6922 16512.2339 212.7398 0.0000 0.0000 -165653.3848 0.0000 -165653.3848 -165653.3848 0.0000 13741.3314 -26265.6970 534946.2959 13741.3314 -26265.6970
ENERGY: 320 152.0021 633.0685 2909.7554 0.0000 -186892.4734 16688.4216 269.3762 0.0000 0.0000 -166239.8497 0.0000 -166239.8497 -166239.8497 0.0000 13709.6668 -5932.0988 534946.2959 13709.6668 -5932.0988
ENERGY: 340 192.9130 663.6515 2909.5198 0.0000 -187998.0552 17002.7635 328.5127 0.0000 0.0000 -166900.6947 0.0000 -166900.6947 -166900.6947 0.0000 13710.1317 -6041.8300 534946.2959 13710.1317 -6041.8300
ENERGY: 360 138.4126 633.7716 2904.9035 0.0000 -188598.1238 17205.7049 348.7323 0.0000 0.0000 -167366.5990 0.0000 -167366.5990 -167366.5990 0.0000 13789.0230 -6030.9555 534946.2959 13789.0230 -6030.9555
ENERGY: 380 156.8922 631.3451 2903.0844 0.0000 -189446.7601 17517.2246 351.5655 0.0000 0.0000 -167886.6482 0.0000 -167886.6482 -167886.6482 0.0000 13947.0138 -5973.1855 534946.2959 13947.0138 -5973.1855
ENERGY: 400 152.7036 673.6489 2912.8130 0.0000 -190712.2379 17998.3631 361.3540 0.0000 0.0000 -168613.3552 0.0000 -168613.3552 -168613.3552 0.0000 14164.3814 -5900.8058 534946.2959 14164.3814 -5900.8058
TCL: Setting parameter constraintScaling to 0.625
TCL: Minimizing for 100 steps
ETITLE: TS BOND ANGLE DIHED IMPRP ELECT VDW BOUNDARY MISC KINETIC TOTAL TEMP POTENTIAL TOTAL3 TEMPAVG PRESSURE GPRESSURE VOLUME PRESSAVG GPRESSAVG
ENERGY: 400 152.7036 673.6489 2912.8130 0.0000 -190712.2378 17998.3631 180.6770 0.0000 0.0000 -168794.0322 0.0000 -168794.0322 -168794.0322 0.0000 14448.3664 -26658.0521 534946.2959 14448.3664 -26658.0521
ENERGY: 420 309.5621 722.1304 2901.8203 0.0000 -191256.0094 18148.9742 223.1299 0.0000 0.0000 -168950.3926 0.0000 -168950.3926 -168950.3926 0.0000 14417.8758 -5706.7246 534946.2959 14417.8758 -5706.7246
ENERGY: 440 155.3532 643.4672 2890.3854 0.0000 -191727.7111 18297.1295 234.0121 0.0000 0.0000 -169507.3637 0.0000 -169507.3637 -169507.3637 0.0000 14478.5449 -5695.7441 534946.2959 14478.5449 -5695.7441
ENERGY: 460 214.6635 684.2170 2891.9827 0.0000 -192917.8237 18726.1683 276.0837 0.0000 0.0000 -170124.7084 0.0000 -170124.7084 -170124.7084 0.0000 14598.8883 -5714.6172 534946.2959 14598.8883 -5714.6172
ENERGY: 480 178.5091 682.3860 2894.9111 0.0000 -193486.6459 18942.7692 291.0301 0.0000 0.0000 -170497.0405 0.0000 -170497.0405 -170497.0405 0.0000 14691.5205 -5674.7037 534946.2959 14691.5205 -5674.7037
ENERGY: 500 188.4530 678.9823 2889.1353 0.0000 -194679.9479 19457.9097 291.7046 0.0000 0.0000 -171173.7630 0.0000 -171173.7630 -171173.7630 0.0000 14981.4189 -5521.1793 534946.2959 14981.4189 -5521.1793
TCL: Setting parameter constraintScaling to 0.3125
TCL: Minimizing for 100 steps
ETITLE: TS BOND ANGLE DIHED IMPRP ELECT VDW BOUNDARY MISC KINETIC TOTAL TEMP POTENTIAL TOTAL3 TEMPAVG PRESSURE GPRESSURE VOLUME PRESSAVG GPRESSAVG
ENERGY: 500 188.4530 678.9823 2889.1353 0.0000 -194679.9479 19457.9097 145.8523 0.0000 0.0000 -171319.6153 0.0000 -171319.6153 -171319.6153 0.0000 15171.4103 -26865.4695 534946.2959 15171.4103 -26865.4695
ENERGY: 520 201.1681 683.0665 2886.2258 0.0000 -195072.2606 19555.6158 170.5936 0.0000 0.0000 -171575.5908 0.0000 -171575.5908 -171575.5908 0.0000 15123.3265 -5418.8567 534946.2959 15123.3265 -5418.8567
ENERGY: 540 190.9174 689.6613 2876.9050 0.0000 -195733.9217 19796.9163 193.7970 0.0000 0.0000 -171985.7247 0.0000 -171985.7247 -171985.7247 0.0000 15215.8714 -5411.2897 534946.2959 15215.8714 -5411.2897
ENERGY: 560 171.2203 668.5237 2870.4391 0.0000 -196593.4368 20134.4056 214.4924 0.0000 0.0000 -172534.3557 0.0000 -172534.3557 -172534.3557 0.0000 15354.6022 -5363.9462 534946.2959 15354.6022 -5363.9462
ENERGY: 580 230.0996 728.1934 2892.8293 0.0000 -197324.7765 20422.1761 215.2824 0.0000 0.0000 -172836.1958 0.0000 -172836.1958 -172836.1958 0.0000 15478.6378 -5328.5417 534946.2959 15478.6378 -5328.5417
ENERGY: 600 177.6583 671.0630 2882.5890 0.0000 -198219.8846 20835.9104 209.2618 0.0000 0.0000 -173443.4022 0.0000 -173443.4022 -173443.4022 0.0000 15864.7512 -5054.3755 534946.2959 15864.7512 -5054.3755
TCL: Setting parameter constraintScaling to 0.15625
TCL: Minimizing for 100 steps
ETITLE: TS BOND ANGLE DIHED IMPRP ELECT VDW BOUNDARY MISC KINETIC TOTAL TEMP POTENTIAL TOTAL3 TEMPAVG PRESSURE GPRESSURE VOLUME PRESSAVG GPRESSAVG
ENERGY: 600 177.6583 671.0630 2882.5890 0.0000 -198219.8846 20835.9104 104.6309 0.0000 0.0000 -173548.0331 0.0000 -173548.0331 -173548.0331 0.0000 15985.1761 -26896.2745 534946.2959 15985.1761 -26896.2745
ENERGY: 620 148.7486 631.6587 2864.5505 0.0000 -198370.0254 20845.8953 113.4758 0.0000 0.0000 -173765.6965 0.0000 -173765.6965 -173765.6965 0.0000 15868.1572 -5060.2590 534946.2959 15868.1572 -5060.2590
ENERGY: 640 165.8411 656.3902 2852.9858 0.0000 -198900.2699 21007.5163 132.9666 0.0000 0.0000 -174084.5700 0.0000 -174084.5700 -174084.5700 0.0000 15850.6481 -5132.3544 534946.2959 15850.6481 -5132.3544
ENERGY: 660 179.7150 665.5837 2850.3047 0.0000 -199950.3121 21389.6964 151.8741 0.0000 0.0000 -174713.1382 0.0000 -174713.1382 -174713.1382 0.0000 16012.3241 -5093.6655 534946.2959 16012.3241 -5093.6655
ENERGY: 680 199.1766 663.1194 2845.7049 0.0000 -200252.2014 21502.2083 153.3027 0.0000 0.0000 -174888.6896 0.0000 -174888.6896 -174888.6896 0.0000 16101.1100 -5044.2648 534946.2959 16101.1100 -5044.2648
ENERGY: 700 160.5740 645.3212 2839.9718 0.0000 -200482.4612 21593.2418 152.9970 0.0000 0.0000 -175090.3555 0.0000 -175090.3555 -175090.3555 0.0000 16171.4478 -5010.7103 534946.2959 16171.4478 -5010.7103
TCL: Setting parameter constraintScaling to 0.078125
TCL: Minimizing for 100 steps
ETITLE: TS BOND ANGLE DIHED IMPRP ELECT VDW BOUNDARY MISC KINETIC TOTAL TEMP POTENTIAL TOTAL3 TEMPAVG PRESSURE GPRESSURE VOLUME PRESSAVG GPRESSAVG
ENERGY: 700 160.5740 645.3212 2839.9718 0.0000 -200482.4612 21593.2418 76.4985 0.0000 0.0000 -175166.8540 0.0000 -175166.8540 -175166.8540 0.0000 16244.8999 -27163.4058 534946.2959 16244.8999 -27163.4058
ENERGY: 720 161.3953 650.9728 2841.4798 0.0000 -200762.4148 21684.6877 79.9359 0.0000 0.0000 -175343.9433 0.0000 -175343.9433 -175343.9433 0.0000 16281.0863 -4932.6018 534946.2959 16281.0863 -4932.6018
ENERGY: 740 161.5120 655.9531 2835.8107 0.0000 -201279.2903 21891.4994 84.6905 0.0000 0.0000 -175649.8245 0.0000 -175649.8245 -175649.8245 0.0000 16366.9194 -4896.9598 534946.2959 16366.9194 -4896.9598
ENERGY: 760 173.8424 664.9197 2839.9607 0.0000 -201487.8567 21953.4759 87.0187 0.0000 0.0000 -175768.6393 0.0000 -175768.6393 -175768.6393 0.0000 16388.3446 -4906.5473 534946.2959 16388.3446 -4906.5473
ENERGY: 780 220.3506 694.6268 2835.4802 0.0000 -201857.1389 22107.0093 89.0943 0.0000 0.0000 -175910.5776 0.0000 -175910.5776 -175910.5776 0.0000 16487.4388 -4856.4014 534946.2959 16487.4388 -4856.4014
ENERGY: 800 158.6955 648.0127 2830.6671 0.0000 -201914.7754 22129.2237 89.7062 0.0000 0.0000 -176058.4703 0.0000 -176058.4703 -176058.4703 0.0000 16495.3174 -4849.0546 534946.2959 16495.3174 -4849.0546
TCL: Setting parameter constraintScaling to 0.0390625
TCL: Minimizing for 100 steps
ETITLE: TS BOND ANGLE DIHED IMPRP ELECT VDW BOUNDARY MISC KINETIC TOTAL TEMP POTENTIAL TOTAL3 TEMPAVG PRESSURE GPRESSURE VOLUME PRESSAVG GPRESSAVG
ENERGY: 800 158.6955 648.0127 2830.6671 0.0000 -201914.7754 22129.2237 44.8531 0.0000 0.0000 -176103.3234 0.0000 -176103.3234 -176103.3234 0.0000 16535.7068 -27217.7241 534946.2959 16535.7068 -27217.7241
ENERGY: 820 172.5005 659.4152 2832.1486 0.0000 -202162.6657 22216.8190 46.8356 0.0000 0.0000 -176234.9467 0.0000 -176234.9467 -176234.9467 0.0000 16551.5746 -4821.1353 534946.2959 16551.5746 -4821.1353
ENERGY: 840 164.4273 650.9390 2826.6285 0.0000 -202566.5185 22378.2863 48.9373 0.0000 0.0000 -176497.3000 0.0000 -176497.3000 -176497.3000 0.0000 16646.4688 -4777.3078 534946.2959 16646.4688 -4777.3078
ENERGY: 860 179.1310 656.2604 2825.4466 0.0000 -203141.2360 22625.0275 51.8064 0.0000 0.0000 -176803.5642 0.0000 -176803.5642 -176803.5642 0.0000 16763.9316 -4723.7963 534946.2959 16763.9316 -4723.7963
ENERGY: 880 163.6723 652.6596 2824.3176 0.0000 -203245.6495 22660.8966 52.4410 0.0000 0.0000 -176891.6625 0.0000 -176891.6625 -176891.6625 0.0000 16789.4003 -4714.3242 534946.2959 16789.4003 -4714.3242
ENERGY: 900 171.8491 651.5450 2819.1528 0.0000 -203777.6851 22888.3614 55.0337 0.0000 0.0000 -177191.7429 0.0000 -177191.7429 -177191.7429 0.0000 16906.7900 -4658.0292 534946.2959 16906.7900 -4658.0292
TCL: Setting parameter constraintScaling to 0.01953125
TCL: Minimizing for 100 steps
ETITLE: TS BOND ANGLE DIHED IMPRP ELECT VDW BOUNDARY MISC KINETIC TOTAL TEMP POTENTIAL TOTAL3 TEMPAVG PRESSURE GPRESSURE VOLUME PRESSAVG GPRESSAVG
ENERGY: 900 171.8491 651.5450 2819.1528 0.0000 -203777.6851 22888.3614 27.5169 0.0000 0.0000 -177219.2598 0.0000 -177219.2598 -177219.2598 0.0000 16929.9385 -27265.0288 534946.2959 16929.9385 -27265.0288
ENERGY: 920 162.4284 648.0282 2818.0955 0.0000 -203889.9957 22934.5100 27.8472 0.0000 0.0000 -177299.0863 0.0000 -177299.0863 -177299.0863 0.0000 16948.2859 -4626.8278 534946.2959 16948.2859 -4626.8278
ENERGY: 940 167.3817 656.6731 2817.6454 0.0000 -204229.0166 23079.5732 28.8759 0.0000 0.0000 -177478.8674 0.0000 -177478.8674 -177478.8674 0.0000 17017.6394 -4598.4687 534946.2959 17017.6394 -4598.4687
ENERGY: 960 171.1496 663.9841 2816.0733 0.0000 -204585.6088 23233.9183 29.9570 0.0000 0.0000 -177670.5265 0.0000 -177670.5265 -177670.5265 0.0000 17094.2244 -4564.8223 534946.2959 17094.2244 -4564.8223
ENERGY: 980 164.4919 650.6407 2813.1860 0.0000 -204788.0705 23323.3434 30.6019 0.0000 0.0000 -177805.8066 0.0000 -177805.8066 -177805.8066 0.0000 17135.9296 -4542.5026 534946.2959 17135.9296 -4542.5026
ENERGY: 1000 173.2433 660.4829 2814.1896 0.0000 -205266.9669 23534.0654 31.9249 0.0000 0.0000 -178053.0609 0.0000 -178053.0609 -178053.0609 0.0000 17250.7810 -4483.3423 534946.2959 17250.7810 -4483.3423
TCL: Setting parameter constraintScaling to 0
TCL: Minimizing for 5000 steps
ETITLE: TS BOND ANGLE DIHED IMPRP ELECT VDW BOUNDARY MISC KINETIC TOTAL TEMP POTENTIAL TOTAL3 TEMPAVG PRESSURE GPRESSURE VOLUME PRESSAVG GPRESSAVG
ENERGY: 1000 173.2433 660.4829 2814.1896 0.0000 -205266.9669 23534.0654 0.0000 0.0000 0.0000 -178084.9858 0.0000 -178084.9858 -178084.9858 0.0000 17276.3561 -27276.0677 534946.2959 17276.3561 -27276.0677
ENERGY: 2000 167.2152 664.3398 2799.4814 0.0000 -214769.4090 27728.3620 0.0000 0.0000 0.0000 -183410.0106 0.0000 -183410.0106 -183410.0106 0.0000 19500.0791 -3310.4554 534946.2959 19500.0791 -3310.4554
ENERGY: 3000 209.4214 687.9320 2800.7716 0.0000 -217410.4891 28830.9414 0.0000 0.0000 0.0000 -184881.4227 0.0000 -184881.4227 -184881.4227 0.0000 20080.3256 -3006.3015 534946.2959 20080.3256 -3006.3015
ENERGY: 4000 166.4108 665.2491 2789.7025 0.0000 -218701.8179 29344.2984 0.0000 0.0000 0.0000 -185736.1571 0.0000 -185736.1571 -185736.1571 0.0000 20351.5004 -2858.2379 534946.2959 20351.5004 -2858.2379
ENERGY: 5000 166.6322 666.4001 2786.4861 0.0000 -219478.3692 29660.8099 0.0000 0.0000 0.0000 -186198.0409 0.0000 -186198.0409 -186198.0409 0.0000 20520.1951 -2750.6183 534946.2959 20520.1951 -2750.6183
ENERGY: 6000 167.1061 665.2361 2788.2023 0.0000 -219874.5565 29824.0070 0.0000 0.0000 0.0000 -186430.0051 0.0000 -186430.0051 -186430.0051 0.0000 20608.3968 -2696.7451 534946.2959 20608.3968 -2696.7451
