Info: SIMULATION PARAMETERS:
Info: TIMESTEP               2
Info: NUMBER OF STEPS        0
Info: STEPS PER CYCLE        10
Info: PERIODIC CELL BASIS 1  72.449 0 0
Info: PERIODIC CELL BASIS 2  0 93.247 0
Info: PERIODIC CELL BASIS 3  0 0 79.185
Info: PERIODIC CELL CENTER   -0.248 -0.156 -0.047
Info: WRAPPING WATERS AROUND PERIODIC BOUNDARIES ON OUTPUT.
Info: WRAPPING ALL CLUSTERS AROUND PERIODIC BOUNDARIES ON OUTPUT.
Info: FIRST LDB TIMESTEP     50
Info: LAST LDB TIMESTEP     -1
Info: HOM BACKGROUND SCALING 1
Info: PME BACKGROUND SCALING 1
Info: MIN ATOMS PER PATCH    40
Info: INITIAL TEMPERATURE    0
Info: CENTER OF MASS MOVING INITIALLY? NO
Info: DIELECTRIC             1
Info: EXCLUDE                SCALED ONE-FOUR
Info: 1-4 ELECTROSTATICS SCALED BY 0.833333
Info: MODIFIED 1-4 VDW PARAMETERS WILL BE USED
Info: NO DCD TRAJECTORY OUTPUT
Info: NO EXTENDED SYSTEM TRAJECTORY OUTPUT
Info: NO VELOCITY DCD OUTPUT
Info: NO FORCE DCD OUTPUT
Info: OUTPUT FILENAME        ../replicas/rep111/equilibration/eq0
Info: NO RESTART FILE
Info: SWITCHING ACTIVE
Info: SWITCHING ON           10
Info: SWITCHING OFF          12
Info: PAIRLIST DISTANCE      13.5
Info: PAIRLIST SHRINK RATE   0.01
Info: PAIRLIST GROW RATE     0.01
Info: PAIRLIST TRIGGER       0.3
Info: PAIRLISTS PER CYCLE    2
Info: PAIRLISTS ENABLED
Info: MARGIN                 0
Info: HYDROGEN GROUP CUTOFF  2.5
Info: PATCH DIMENSION        16
Info: ENERGY OUTPUT STEPS    500
Info: CROSSTERM ENERGY INCLUDED IN DIHEDRAL
Info: TIMING OUTPUT STEPS    5000
Info: PRESSURE OUTPUT STEPS  500
Info: HARMONIC CONSTRAINTS ACTIVE
Info: HARMONIC CONS EXP      2
Info: HARMONIC CONS SCALING  10
Info: CONJUGATE GRADIENT MINIMIZATION ACTIVE
Info: LINE MINIMIZATION GOAL = 0.001
Info: BABY STEP SIZE = 0.01
Info: TINY STEP SIZE = 1e-06
Info: PARTICLE MESH EWALD (PME) ACTIVE
Info: PME TOLERANCE               1e-06
Info: PME EWALD COEFFICIENT       0.257952
Info: PME INTERPOLATION ORDER     4
Info: PME GRID DIMENSIONS         80 96 80
Info: PME MAXIMUM GRID SPACING    1
Info: FULL ELECTROSTATIC EVALUATION FREQUENCY      2
Info: USING VERLET I (r-RESPA) MTS SCHEME.
Info: C1 SPLITTING OF LONG RANGE ELECTROSTATICS
Info: PLACING ATOMS IN PATCHES BY HYDROGEN GROUPS
Info: RIGID BONDS TO HYDROGEN : ALL
Info:         ERROR TOLERANCE : 1e-05
Info:          MAX ITERATIONS : 100
Info: RIGID WATER USING SETTLE ALGORITHM
Info: RANDOM NUMBER SEED     1503691733
Info: USE HYDROGEN BONDS?    NO
Info: Using AMBER format force field!
Info: AMBER PARM FILE        ../build/complex.top
Info: COORDINATE PDB         ../build/complex.pdb
Info: Exclusions in PARM file will be ignored!
Info: SCNB (VDW SCALING)     2
Info: USING ARITHMETIC MEAN TO COMBINE L-J SIGMA PARAMETERS
Info: SUMMARY OF PARAMETERS:
Info: 71 BONDS
Info: 145 ANGLES
Info: 76 DIHEDRAL
Info: 0 IMPROPER
Info: 0 CROSSTERM
Info: 0 VDW
Info: 190 VDW_PAIRS
Info: 0 NBTHOLE_PAIRS
Info: STRUCTURE SUMMARY:
Info: 49394 ATOMS
Info: 49448 BONDS
Info: 8698 ANGLES
Info: 18780 DIHEDRALS
Info: 0 IMPROPERS
Info: 0 CROSSTERMS
Info: 0 EXCLUSIONS
Info: 2336 CONSTRAINTS
Info: 47058 RIGID BONDS
Info: 101124 DEGREES OF FREEDOM
Info: 17225 HYDROGEN GROUPS
Info: 4 ATOMS IN LARGEST HYDROGEN GROUP
Info: 17225 MIGRATION GROUPS
Info: 4 ATOMS IN LARGEST MIGRATION GROUP
Info: TOTAL MASS = 301478 amu
Info: TOTAL CHARGE = 1.00115e-05 e
Info: MASS DENSITY = 0.935846 g/cm^3
Info: ATOM DENSITY = 0.0923345 atoms/A^3
Info: ADDED 70656 IMPLICIT EXCLUSIONS
Info: NONBONDED TABLE R-SQUARED SPACING: 0.0625
Info: NONBONDED TABLE SIZE: 769 POINTS
Info: REMOVING COM VELOCITY 0 0 0
TCL: Minimizing for 100 steps
ETITLE: TS BOND ANGLE DIHED IMPRP ELECT VDW BOUNDARY MISC KINETIC TOTAL TEMP POTENTIAL TOTAL3 TEMPAVG PRESSURE GPRESSURE VOLUME PRESSAVG GPRESSAVG
ENERGY: 0 155.4176 1012.2698 2855.7272 0.0000 -154496.7912 207729.2052 0.0468 0.0000 0.0000 57255.8754 0.0000 57255.8754 57255.8754 0.0000 116350.2532 86546.1670 534946.2959 116350.2532 86546.1670
ENERGY: 20 304.7554 935.7912 2893.4663 0.0000 -158672.9407 17936.6593 143.9454 0.0000 0.0000 -136458.3231 0.0000 -136458.3231 -136458.3231 0.0000 16523.9386 -239.4560 534946.2959 16523.9386 -239.4560
ENERGY: 40 198.7453 799.5729 2896.9273 0.0000 -162811.4531 16417.9537 221.3030 0.0000 0.0000 -142276.9508 0.0000 -142276.9508 -142276.9508 0.0000 15011.2703 -2135.4698 534946.2959 15011.2703 -2135.4698
ENERGY: 60 130.5281 715.3440 2898.2166 0.0000 -167496.1579 15446.7538 315.2796 0.0000 0.0000 -147990.0358 0.0000 -147990.0358 -147990.0358 0.0000 13793.8835 -3799.3989 534946.2959 13793.8835 -3799.3989
ENERGY: 80 431.2725 765.6306 2904.3787 0.0000 -169937.5323 15121.1521 372.0123 0.0000 0.0000 -150343.0862 0.0000 -150343.0862 -150343.0862 0.0000 13270.3301 -4577.2457 534946.2959 13270.3301 -4577.2457
ENERGY: 100 119.3852 710.0599 2905.2591 0.0000 -171259.7150 14991.7866 387.3613 0.0000 0.0000 -152145.8627 0.0000 -152145.8627 -152145.8627 0.0000 13056.2651 -4908.1729 534946.2959 13056.2651 -4908.1729
TCL: Setting parameter constraintScaling to 5.0
TCL: Minimizing for 100 steps
ETITLE: TS BOND ANGLE DIHED IMPRP ELECT VDW BOUNDARY MISC KINETIC TOTAL TEMP POTENTIAL TOTAL3 TEMPAVG PRESSURE GPRESSURE VOLUME PRESSAVG GPRESSAVG
ENERGY: 100 119.3852 710.0599 2905.2591 0.0000 -171259.7150 14991.7866 193.6807 0.0000 0.0000 -152339.5434 0.0000 -152339.5434 -152339.5434 0.0000 13672.7713 -23021.8195 534946.2959 13672.7713 -23021.8195
ENERGY: 120 108.8830 687.5841 2912.9266 0.0000 -172865.8858 14798.2706 281.1917 0.0000 0.0000 -154077.0298 0.0000 -154077.0298 -154077.0298 0.0000 13218.2544 -4906.0173 534946.2959 13218.2544 -4906.0173
ENERGY: 140 309.4284 708.8672 2913.8025 0.0000 -174236.6798 14731.4812 326.6397 0.0000 0.0000 -155246.4608 0.0000 -155246.4608 -155246.4608 0.0000 12971.5257 -5303.2452 534946.2959 12971.5257 -5303.2452
ENERGY: 160 265.2510 683.1191 2923.1748 0.0000 -176275.3656 14757.3377 382.8904 0.0000 0.0000 -157263.5926 0.0000 -157263.5926 -157263.5926 0.0000 12740.9556 -5742.9746 534946.2959 12740.9556 -5742.9746
ENERGY: 180 268.8822 744.0952 2928.5660 0.0000 -178995.3745 15023.5086 473.3005 0.0000 0.0000 -159557.0219 0.0000 -159557.0219 -159557.0219 0.0000 12521.6062 -6223.7388 534946.2959 12521.6062 -6223.7388
ENERGY: 200 238.9080 694.0893 2941.3633 0.0000 -181556.3054 15587.0611 546.2668 0.0000 0.0000 -161548.6169 0.0000 -161548.6169 -161548.6169 0.0000 12582.6459 -6420.6580 534946.2959 12582.6459 -6420.6580
TCL: Setting parameter constraintScaling to 2.5
TCL: Minimizing for 100 steps
ETITLE: TS BOND ANGLE DIHED IMPRP ELECT VDW BOUNDARY MISC KINETIC TOTAL TEMP POTENTIAL TOTAL3 TEMPAVG PRESSURE GPRESSURE VOLUME PRESSAVG GPRESSAVG
ENERGY: 200 238.9080 694.0893 2941.3633 0.0000 -181556.3054 15587.0611 273.1334 0.0000 0.0000 -161821.7503 0.0000 -161821.7503 -161821.7503 0.0000 13229.5544 -25651.4667 534946.2959 13229.5544 -25651.4667
ENERGY: 220 251.1250 679.9582 2933.0272 0.0000 -182083.0356 15470.9000 338.5967 0.0000 0.0000 -162409.4285 0.0000 -162409.4285 -162409.4285 0.0000 12967.8748 -6091.0553 534946.2959 12967.8748 -6091.0553
ENERGY: 240 139.2883 665.8153 2928.6012 0.0000 -182462.6750 15494.2283 343.5988 0.0000 0.0000 -162891.1430 0.0000 -162891.1430 -162891.1430 0.0000 13034.3005 -6103.9406 534946.2959 13034.3005 -6103.9406
ENERGY: 260 164.6438 683.7581 2921.6139 0.0000 -183941.0233 15800.1984 385.4572 0.0000 0.0000 -163985.3519 0.0000 -163985.3519 -163985.3519 0.0000 13031.8268 -6242.4202 534946.2959 13031.8268 -6242.4202
ENERGY: 280 169.0202 700.9012 2917.6032 0.0000 -185423.0985 16228.9854 454.8320 0.0000 0.0000 -164951.7564 0.0000 -164951.7564 -164951.7564 0.0000 13143.5718 -6334.6246 534946.2959 13143.5718 -6334.6246
ENERGY: 300 126.6729 639.5473 2916.2527 0.0000 -186095.1761 16446.0138 481.3809 0.0000 0.0000 -165485.3085 0.0000 -165485.3085 -165485.3085 0.0000 13207.8356 -6338.7874 534946.2959 13207.8356 -6338.7874
TCL: Setting parameter constraintScaling to 1.25
TCL: Minimizing for 100 steps
ETITLE: TS BOND ANGLE DIHED IMPRP ELECT VDW BOUNDARY MISC KINETIC TOTAL TEMP POTENTIAL TOTAL3 TEMPAVG PRESSURE GPRESSURE VOLUME PRESSAVG GPRESSAVG
ENERGY: 300 126.6729 639.5473 2916.2527 0.0000 -186095.1761 16446.0138 240.6905 0.0000 0.0000 -165725.9989 0.0000 -165725.9989 -165725.9989 0.0000 13656.1873 -26348.8319 534946.2959 13656.1873 -26348.8319
ENERGY: 320 131.9719 624.5799 2911.1555 0.0000 -186666.3121 16580.0018 272.7550 0.0000 0.0000 -166145.8480 0.0000 -166145.8480 -166145.8480 0.0000 13629.6591 -5970.2471 534946.2959 13629.6591 -5970.2471
ENERGY: 340 150.0366 624.5318 2910.6005 0.0000 -187382.7150 16813.2497 296.0850 0.0000 0.0000 -166588.2115 0.0000 -166588.2115 -166588.2115 0.0000 13650.4050 -6005.8433 534946.2959 13650.4050 -6005.8433
ENERGY: 360 134.3327 677.3049 2910.2975 0.0000 -188698.6458 17253.3981 351.7109 0.0000 0.0000 -167371.6017 0.0000 -167371.6017 -167371.6017 0.0000 13827.9816 -6013.2174 534946.2959 13827.9816 -6013.2174
ENERGY: 380 181.5742 660.1759 2902.0639 0.0000 -189876.6996 17711.0612 380.2321 0.0000 0.0000 -168041.5923 0.0000 -168041.5923 -168041.5923 0.0000 13966.4463 -5986.0875 534946.2959 13966.4463 -5986.0875
ENERGY: 400 138.8435 633.0511 2899.7176 0.0000 -190459.0829 17922.4683 394.0689 0.0000 0.0000 -168470.9335 0.0000 -168470.9335 -168470.9335 0.0000 14119.3526 -5918.4656 534946.2959 14119.3526 -5918.4656
TCL: Setting parameter constraintScaling to 0.625
TCL: Minimizing for 100 steps
ETITLE: TS BOND ANGLE DIHED IMPRP ELECT VDW BOUNDARY MISC KINETIC TOTAL TEMP POTENTIAL TOTAL3 TEMPAVG PRESSURE GPRESSURE VOLUME PRESSAVG GPRESSAVG
ENERGY: 400 138.8435 633.0511 2899.7176 0.0000 -190459.0829 17922.4683 197.0345 0.0000 0.0000 -168667.9680 0.0000 -168667.9680 -168667.9680 0.0000 14417.2361 -26606.3072 534946.2959 14417.2361 -26606.3072
ENERGY: 420 149.5081 627.4604 2895.2953 0.0000 -190880.4696 18020.9051 219.5071 0.0000 0.0000 -168967.7935 0.0000 -168967.7935 -168967.7935 0.0000 14350.3279 -5718.2126 534946.2959 14350.3279 -5718.2126
ENERGY: 440 145.3409 633.5717 2891.4704 0.0000 -191282.9705 18149.6058 229.3135 0.0000 0.0000 -169233.6683 0.0000 -169233.6683 -169233.6683 0.0000 14417.9960 -5705.8936 534946.2959 14417.9960 -5705.8936
ENERGY: 460 208.2471 655.1512 2888.4909 0.0000 -192399.7947 18530.9330 265.1864 0.0000 0.0000 -169851.7862 0.0000 -169851.7862 -169851.7862 0.0000 14572.8204 -5694.9693 534946.2959 14572.8204 -5694.9693
ENERGY: 480 145.2129 640.6516 2880.6187 0.0000 -193516.9173 18970.2107 296.7337 0.0000 0.0000 -170583.4899 0.0000 -170583.4899 -170583.4899 0.0000 14744.1479 -5639.8187 534946.2959 14744.1479 -5639.8187
ENERGY: 500 185.6302 662.3201 2886.3683 0.0000 -193904.9521 19123.7240 303.8533 0.0000 0.0000 -170743.0562 0.0000 -170743.0562 -170743.0562 0.0000 14729.1586 -5665.7541 534946.2959 14729.1586 -5665.7541
TCL: Setting parameter constraintScaling to 0.3125
TCL: Minimizing for 100 steps
ETITLE: TS BOND ANGLE DIHED IMPRP ELECT VDW BOUNDARY MISC KINETIC TOTAL TEMP POTENTIAL TOTAL3 TEMPAVG PRESSURE GPRESSURE VOLUME PRESSAVG GPRESSAVG
ENERGY: 500 185.6302 662.3201 2886.3683 0.0000 -193904.9521 19123.7240 151.9266 0.0000 0.0000 -170894.9829 0.0000 -170894.9829 -170894.9829 0.0000 14924.0972 -26912.8343 534946.2959 14924.0972 -26912.8343
ENERGY: 520 144.0478 645.5659 2877.9920 0.0000 -194058.0365 19172.3848 155.7441 0.0000 0.0000 -171062.3020 0.0000 -171062.3020 -171062.3020 0.0000 15011.4535 -5425.4187 534946.2959 15011.4535 -5425.4187
ENERGY: 540 151.9746 644.0446 2873.6068 0.0000 -194550.8317 19341.4714 170.4772 0.0000 0.0000 -171369.2572 0.0000 -171369.2572 -171369.2572 0.0000 15057.7346 -5436.9662 534946.2959 15057.7346 -5436.9662
ENERGY: 560 242.0843 655.4343 2878.2967 0.0000 -195173.2730 19572.8576 183.3521 0.0000 0.0000 -171641.2480 0.0000 -171641.2480 -171641.2480 0.0000 15074.4874 -5447.3836 534946.2959 15074.4874 -5447.3836
ENERGY: 580 147.7180 645.2093 2871.0548 0.0000 -195537.6042 19708.0705 190.3652 0.0000 0.0000 -171975.1864 0.0000 -171975.1864 -171975.1864 0.0000 15220.2441 -5384.0975 534946.2959 15220.2441 -5384.0975
ENERGY: 600 213.3101 683.7679 2869.8492 0.0000 -196207.6467 19961.3162 208.6883 0.0000 0.0000 -172270.7150 0.0000 -172270.7150 -172270.7150 0.0000 15220.8805 -5433.2531 534946.2959 15220.8805 -5433.2531
TCL: Setting parameter constraintScaling to 0.15625
TCL: Minimizing for 100 steps
ETITLE: TS BOND ANGLE DIHED IMPRP ELECT VDW BOUNDARY MISC KINETIC TOTAL TEMP POTENTIAL TOTAL3 TEMPAVG PRESSURE GPRESSURE VOLUME PRESSAVG GPRESSAVG
ENERGY: 600 213.3101 683.7679 2869.8492 0.0000 -196207.6467 19961.3162 104.3442 0.0000 0.0000 -172375.0591 0.0000 -172375.0591 -172375.0591 0.0000 15338.5653 -27036.9974 534946.2959 15338.5653 -27036.9974
ENERGY: 620 160.6479 644.8113 2868.9749 0.0000 -196429.9381 20037.4932 105.4660 0.0000 0.0000 -172612.5449 0.0000 -172612.5449 -172612.5449 0.0000 15434.9557 -5255.2849 534946.2959 15434.9557 -5255.2849
ENERGY: 640 181.2549 651.8417 2869.5396 0.0000 -196981.0447 20254.6513 113.1589 0.0000 0.0000 -172910.5984 0.0000 -172910.5984 -172910.5984 0.0000 15519.8275 -5224.3664 534946.2959 15519.8275 -5224.3664
ENERGY: 660 176.7394 670.1706 2862.3660 0.0000 -197542.3093 20444.7035 125.2497 0.0000 0.0000 -173263.0800 0.0000 -173263.0800 -173263.0800 0.0000 15594.4463 -5234.9459 534946.2959 15594.4463 -5234.9459
ENERGY: 680 162.9729 663.2913 2857.9303 0.0000 -197915.8992 20591.3422 131.6470 0.0000 0.0000 -173508.7156 0.0000 -173508.7156 -173508.7156 0.0000 15653.1026 -5216.6664 534946.2959 15653.1026 -5216.6664
ENERGY: 700 165.3834 649.9066 2861.0549 0.0000 -198161.8299 20707.2887 129.2098 0.0000 0.0000 -173648.9864 0.0000 -173648.9864 -173648.9864 0.0000 15722.2534 -5150.6824 534946.2959 15722.2534 -5150.6824
TCL: Setting parameter constraintScaling to 0.078125
TCL: Minimizing for 100 steps
ETITLE: TS BOND ANGLE DIHED IMPRP ELECT VDW BOUNDARY MISC KINETIC TOTAL TEMP POTENTIAL TOTAL3 TEMPAVG PRESSURE GPRESSURE VOLUME PRESSAVG GPRESSAVG
ENERGY: 700 165.3834 649.9066 2861.0549 0.0000 -198161.8299 20707.2887 64.6049 0.0000 0.0000 -173713.5913 0.0000 -173713.5913 -173713.5913 0.0000 15789.6552 -27054.8040 534946.2959 15789.6552 -27054.8040
ENERGY: 720 198.8436 677.7287 2857.0111 0.0000 -198380.3573 20759.7776 68.9448 0.0000 0.0000 -173818.0516 0.0000 -173818.0516 -173818.0516 0.0000 15820.4647 -5107.8455 534946.2959 15820.4647 -5107.8455
ENERGY: 740 194.6998 701.7630 2846.7349 0.0000 -199377.9688 21142.0714 79.0689 0.0000 0.0000 -174413.6308 0.0000 -174413.6308 -174413.6308 0.0000 15968.1843 -5067.3430 534946.2959 15968.1843 -5067.3430
ENERGY: 760 169.8624 655.6903 2845.0602 0.0000 -199671.6855 21246.3023 79.7459 0.0000 0.0000 -174675.0243 0.0000 -174675.0243 -174675.0243 0.0000 16032.1228 -5036.5012 534946.2959 16032.1228 -5036.5012
ENERGY: 780 300.9451 707.9541 2848.0065 0.0000 -200095.8146 21411.8607 82.9415 0.0000 0.0000 -174744.1066 0.0000 -174744.1066 -174744.1066 0.0000 16117.5731 -5011.1567 534946.2959 16117.5731 -5011.1567
ENERGY: 800 193.9452 692.4263 2841.0209 0.0000 -200296.9194 21483.9424 85.9735 0.0000 0.0000 -174999.6111 0.0000 -174999.6111 -174999.6111 0.0000 16119.5569 -5021.7396 534946.2959 16119.5569 -5021.7396
TCL: Setting parameter constraintScaling to 0.0390625
TCL: Minimizing for 100 steps
ETITLE: TS BOND ANGLE DIHED IMPRP ELECT VDW BOUNDARY MISC KINETIC TOTAL TEMP POTENTIAL TOTAL3 TEMPAVG PRESSURE GPRESSURE VOLUME PRESSAVG GPRESSAVG
ENERGY: 800 193.9452 692.4263 2841.0209 0.0000 -200296.9194 21483.9424 42.9867 0.0000 0.0000 -175042.5979 0.0000 -175042.5979 -175042.5979 0.0000 16159.5319 -27191.8561 534946.2959 16159.5319 -27191.8561
ENERGY: 820 161.1133 647.7975 2837.7540 0.0000 -200453.9320 21550.1008 42.7675 0.0000 0.0000 -175214.3989 0.0000 -175214.3989 -175214.3989 0.0000 16228.0948 -4929.7499 534946.2959 16228.0948 -4929.7499
ENERGY: 840 300.0036 744.9100 2836.5420 0.0000 -200959.0918 21742.2817 45.7300 0.0000 0.0000 -175289.6246 0.0000 -175289.6246 -175289.6246 0.0000 16217.9426 -4970.8615 534946.2959 16217.9426 -4970.8615
ENERGY: 860 179.2438 665.1957 2831.0906 0.0000 -201121.3256 21790.2693 46.5809 0.0000 0.0000 -175608.9454 0.0000 -175608.9454 -175608.9454 0.0000 16344.7563 -4909.7735 534946.2959 16344.7563 -4909.7735
ENERGY: 880 196.4228 664.7429 2828.9885 0.0000 -202216.4245 22228.7003 51.8577 0.0000 0.0000 -176245.7122 0.0000 -176245.7122 -176245.7122 0.0000 16576.5651 -4813.3789 534946.2959 16576.5651 -4813.3789
ENERGY: 900 177.5473 663.4522 2822.3694 0.0000 -203011.0563 22613.3683 55.5341 0.0000 0.0000 -176678.7851 0.0000 -176678.7851 -176678.7851 0.0000 16756.0508 -4704.8220 534946.2959 16756.0508 -4704.8220
TCL: Setting parameter constraintScaling to 0.01953125
TCL: Minimizing for 100 steps
ETITLE: TS BOND ANGLE DIHED IMPRP ELECT VDW BOUNDARY MISC KINETIC TOTAL TEMP POTENTIAL TOTAL3 TEMPAVG PRESSURE GPRESSURE VOLUME PRESSAVG GPRESSAVG
ENERGY: 900 177.5473 663.4522 2822.3694 0.0000 -203011.0563 22613.3683 27.7670 0.0000 0.0000 -176706.5521 0.0000 -176706.5521 -176706.5521 0.0000 16779.5529 -27221.2411 534946.2959 16779.5529 -27221.2411
ENERGY: 920 194.8134 674.7467 2817.7186 0.0000 -203246.3751 22687.6857 28.5987 0.0000 0.0000 -176842.8120 0.0000 -176842.8120 -176842.8120 0.0000 16806.9609 -4676.6564 534946.2959 16806.9609 -4676.6564
ENERGY: 940 167.7629 656.3221 2819.6805 0.0000 -203515.3834 22789.7160 29.2937 0.0000 0.0000 -177052.6081 0.0000 -177052.6081 -177052.6081 0.0000 16859.1273 -4663.1933 534946.2959 16859.1273 -4663.1933
ENERGY: 960 163.2884 652.3064 2815.5910 0.0000 -203753.7693 22886.3940 29.9099 0.0000 0.0000 -177206.2797 0.0000 -177206.2797 -177206.2797 0.0000 16913.8958 -4638.8986 534946.2959 16913.8958 -4638.8986
ENERGY: 980 203.1924 684.6300 2819.5367 0.0000 -204340.2685 23133.8479 31.7185 0.0000 0.0000 -177467.3430 0.0000 -177467.3430 -177467.3430 0.0000 17019.4611 -4602.0573 534946.2959 17019.4611 -4602.0573
ENERGY: 1000 180.5444 663.1196 2811.4376 0.0000 -204955.2565 23433.0727 33.3754 0.0000 0.0000 -177833.7068 0.0000 -177833.7068 -177833.7068 0.0000 17203.8098 -4491.4560 534946.2959 17203.8098 -4491.4560
TCL: Setting parameter constraintScaling to 0
TCL: Minimizing for 5000 steps
ETITLE: TS BOND ANGLE DIHED IMPRP ELECT VDW BOUNDARY MISC KINETIC TOTAL TEMP POTENTIAL TOTAL3 TEMPAVG PRESSURE GPRESSURE VOLUME PRESSAVG GPRESSAVG
ENERGY: 1000 180.5444 663.1196 2811.4376 0.0000 -204955.2566 23433.0727 0.0000 0.0000 0.0000 -177867.0822 0.0000 -177867.0822 -177867.0822 0.0000 17230.3926 -27235.2675 534946.2959 17230.3926 -27235.2675
ENERGY: 2000 167.4139 660.9718 2800.3444 0.0000 -214607.1224 27708.4652 0.0000 0.0000 0.0000 -183269.9270 0.0000 -183269.9270 -183269.9270 0.0000 19494.2872 -3293.3318 534946.2959 19494.2872 -3293.3318
ENERGY: 3000 180.4784 670.7372 2794.6632 0.0000 -217340.8498 28812.0774 0.0000 0.0000 0.0000 -184882.8938 0.0000 -184882.8938 -184882.8938 0.0000 20055.3778 -3021.3353 534946.2959 20055.3778 -3021.3353
ENERGY: 4000 166.7546 665.0926 2787.8136 0.0000 -218627.4259 29316.3816 0.0000 0.0000 0.0000 -185691.3836 0.0000 -185691.3836 -185691.3836 0.0000 20335.9402 -2867.7004 534946.2959 20335.9402 -2867.7004
ENERGY: 5000 165.5306 661.7158 2787.0237 0.0000 -219416.0915 29630.8057 0.0000 0.0000 0.0000 -186171.0158 0.0000 -186171.0158 -186171.0158 0.0000 20499.4642 -2786.8415 534946.2959 20499.4642 -2786.8415
ENERGY: 6000 165.1695 661.0387 2788.0366 0.0000 -219826.8353 29781.1300 0.0000 0.0000 0.0000 -186431.4604 0.0000 -186431.4604 -186431.4604 0.0000 20584.3427 -2745.0048 534946.2959 20584.3427 -2745.0048
