Info: SIMULATION PARAMETERS:
Info: TIMESTEP               1
Info: NUMBER OF STEPS        0
Info: STEPS PER CYCLE        10
Info: PERIODIC CELL BASIS 1  72.449 0 0
Info: PERIODIC CELL BASIS 2  0 93.247 0
Info: PERIODIC CELL BASIS 3  0 0 79.185
Info: PERIODIC CELL CENTER   -0.248 -0.156 -0.047
Info: WRAPPING WATERS AROUND PERIODIC BOUNDARIES ON OUTPUT.
Info: WRAPPING ALL CLUSTERS AROUND PERIODIC BOUNDARIES ON OUTPUT.
Info: FIRST LDB TIMESTEP     50
Info: LAST LDB TIMESTEP     -1
Info: HOM BACKGROUND SCALING 1
Info: PME BACKGROUND SCALING 1
Info: MIN ATOMS PER PATCH    40
Info: VELOCITY FILE          ../replicas/rep78/equilibration/eq1.vel
Info: CENTER OF MASS MOVING INITIALLY? NO
Info: DIELECTRIC             1
Info: EXCLUDE                SCALED ONE-FOUR
Info: 1-4 ELECTROSTATICS SCALED BY 0.833333
Info: MODIFIED 1-4 VDW PARAMETERS WILL BE USED
Info: DCD FILENAME           ../replicas/rep78/equilibration/eq2.dcd
Info: DCD FREQUENCY          5000
Info: DCD FIRST STEP         5000
Info: DCD FILE WILL CONTAIN UNIT CELL DATA
Info: XST FILENAME           ../replicas/rep78/equilibration/eq2.xst
Info: XST FREQUENCY          5000
Info: NO VELOCITY DCD OUTPUT
Info: NO FORCE DCD OUTPUT
Info: OUTPUT FILENAME        ../replicas/rep78/equilibration/eq2
Info: RESTART FILENAME       ../replicas/rep78/equilibration/eq2.restart
Info: RESTART FREQUENCY      5000
Info: BINARY RESTART FILES WILL BE USED
Info: SWITCHING ACTIVE
Info: SWITCHING ON           10
Info: SWITCHING OFF          12
Info: PAIRLIST DISTANCE      13.5
Info: PAIRLIST SHRINK RATE   0.01
Info: PAIRLIST GROW RATE     0.01
Info: PAIRLIST TRIGGER       0.3
Info: PAIRLISTS PER CYCLE    2
Info: PAIRLISTS ENABLED
Info: MARGIN                 0.48
Info: HYDROGEN GROUP CUTOFF  2.5
Info: PATCH DIMENSION        16.48
Info: ENERGY OUTPUT STEPS    500
Info: CROSSTERM ENERGY INCLUDED IN DIHEDRAL
Info: TIMING OUTPUT STEPS    5000
Info: PRESSURE OUTPUT STEPS  500
Info: HARMONIC CONSTRAINTS ACTIVE
Info: HARMONIC CONS EXP      2
Info: HARMONIC CONS SCALING  10
Info: LANGEVIN DYNAMICS ACTIVE
Info: LANGEVIN TEMPERATURE   300
Info: LANGEVIN USING BBK INTEGRATOR
Info: LANGEVIN DAMPING COEFFICIENT IS 5 INVERSE PS
Info: LANGEVIN DYNAMICS NOT APPLIED TO HYDROGENS
Info: BERENDSEN PRESSURE COUPLING ACTIVE
Info:     TARGET PRESSURE IS 1 BAR
Info:     COMPRESSIBILITY ESTIMATE IS 4.57e-05 BAR^(-1)
Info:     RELAXATION TIME IS 100 FS
Info:     APPLIED EVERY 2 STEPS
Info:     PRESSURE CONTROL IS GROUP-BASED
Info:       CELL FLUCTUATION IS ISOTROPIC
Info: PARTICLE MESH EWALD (PME) ACTIVE
Info: PME TOLERANCE               1e-06
Info: PME EWALD COEFFICIENT       0.257952
Info: PME INTERPOLATION ORDER     4
Info: PME GRID DIMENSIONS         80 96 80
Info: PME MAXIMUM GRID SPACING    1
Info: FULL ELECTROSTATIC EVALUATION FREQUENCY      2
Info: USING VERLET I (r-RESPA) MTS SCHEME.
Info: C1 SPLITTING OF LONG RANGE ELECTROSTATICS
Info: PLACING ATOMS IN PATCHES BY HYDROGEN GROUPS
Info: RIGID BONDS TO HYDROGEN : WATER
Info:         ERROR TOLERANCE : 1e-05
Info:          MAX ITERATIONS : 100
Info: RIGID WATER USING SETTLE ALGORITHM
Info: RANDOM NUMBER SEED     1503695847
Info: USE HYDROGEN BONDS?    NO
Info: Using AMBER format force field!
Info: AMBER PARM FILE        ../build/complex.top
Info: COORDINATE PDB         ../replicas/rep78/equilibration/eq1.coor
Info: Exclusions in PARM file will be ignored!
Info: SCNB (VDW SCALING)     2
Info: USING ARITHMETIC MEAN TO COMBINE L-J SIGMA PARAMETERS
Info: SUMMARY OF PARAMETERS:
Info: 71 BONDS
Info: 145 ANGLES
Info: 76 DIHEDRAL
Info: 0 IMPROPER
Info: 0 CROSSTERM
Info: 0 VDW
Info: 190 VDW_PAIRS
Info: 0 NBTHOLE_PAIRS
Info: STRUCTURE SUMMARY:
Info: 49394 ATOMS
Info: 49448 BONDS
Info: 8698 ANGLES
Info: 18780 DIHEDRALS
Info: 0 IMPROPERS
Info: 0 CROSSTERMS
Info: 0 EXCLUSIONS
Info: 2336 CONSTRAINTS
Info: 44667 RIGID BONDS
Info: 103515 DEGREES OF FREEDOM
Info: 17225 HYDROGEN GROUPS
Info: 4 ATOMS IN LARGEST HYDROGEN GROUP
Info: 17225 MIGRATION GROUPS
Info: 4 ATOMS IN LARGEST MIGRATION GROUP
Info: TOTAL MASS = 301478 amu
Info: TOTAL CHARGE = 1.00115e-05 e
Info: MASS DENSITY = 0.935846 g/cm^3
Info: ATOM DENSITY = 0.0923345 atoms/A^3
Info: ADDED 70656 IMPLICIT EXCLUSIONS
Info: NONBONDED TABLE R-SQUARED SPACING: 0.0625
Info: NONBONDED TABLE SIZE: 769 POINTS
Info: REMOVING COM VELOCITY -0.0160901 -0.0222381 0.00135305
TCL: Running for 5000 steps
ETITLE: TS BOND ANGLE DIHED IMPRP ELECT VDW BOUNDARY MISC KINETIC TOTAL TEMP POTENTIAL TOTAL3 TEMPAVG PRESSURE GPRESSURE VOLUME PRESSAVG GPRESSAVG
ENERGY: 0 399.5879 1208.2044 2927.1683 0.0000 -212599.1794 29471.3195 0.0000 0.0000 10081.7441 -168511.1551 98.0218 -178592.8993 -168501.4161 98.0218 -2364.9725 -2462.7910 534946.2959 -2364.9725 -2462.7910
ENERGY: 1000 1262.0948 1923.6934 3115.9244 0.0000 -193838.6250 26635.7803 765.9998 0.0000 24302.4222 -135832.7101 236.2853 -160135.1323 -135814.2853 218.7391 -40.5885 -12.9801 521679.8945 -27.5946 -27.1688
ENERGY: 2000 1485.6482 2171.3244 3129.2395 0.0000 -184594.6724 23470.7959 799.4819 0.0000 27789.0690 -125749.1136 270.1849 -153538.1825 -125705.9497 264.3728 -94.6251 -16.5637 516046.5326 -20.5165 -19.7097
ENERGY: 3000 1495.4730 2209.5856 3153.3732 0.0000 -179237.5787 21517.8592 794.9536 0.0000 29584.5625 -120481.7716 287.6420 -150066.3341 -120439.5113 283.4374 -55.0706 -31.0195 511118.5461 -3.1761 -3.0998
ENERGY: 4000 1530.1433 2219.6369 3133.3133 0.0000 -177094.3499 20722.6738 783.9557 0.0000 30287.8967 -118416.7302 294.4803 -148704.6269 -118369.1453 292.6693 -137.3487 -3.4643 506674.7729 -16.5233 -16.5271
ENERGY: 5000 1543.8101 2273.1430 3131.3876 0.0000 -176428.1295 20680.3950 821.9996 0.0000 30351.5362 -117625.8579 295.0990 -147977.3941 -117595.4401 296.1277 38.7485 11.0095 505454.0463 -4.5598 -4.3624
TCL: Setting parameter constraintScaling to 5.0
TCL: Running for 5000 steps
ETITLE: TS BOND ANGLE DIHED IMPRP ELECT VDW BOUNDARY MISC KINETIC TOTAL TEMP POTENTIAL TOTAL3 TEMPAVG PRESSURE GPRESSURE VOLUME PRESSAVG GPRESSAVG
ENERGY: 5000 1543.8101 2273.1430 3131.3876 0.0000 -176428.1295 20680.3950 410.9998 0.0000 30349.5115 -118038.8824 295.0793 -148388.3940 -117992.9238 295.0793 18.1245 -13.1169 505454.0463 18.1245 -13.1169
ENERGY: 6000 1596.8662 2269.2241 3185.3740 0.0000 -176176.6934 20403.5446 627.7172 0.0000 30802.4193 -117291.5480 299.4828 -148093.9673 -117239.0727 297.5462 -74.2178 7.6018 504507.5041 -1.0655 -1.2869
ENERGY: 7000 1613.3483 2320.7390 3153.3035 0.0000 -175996.5772 20209.7652 667.9704 0.0000 30844.2595 -117187.1913 299.8896 -148031.4508 -117149.5453 298.3200 -161.5847 -45.0784 501519.0840 -12.1536 -12.3489
ENERGY: 8000 1566.8095 2268.0412 3170.1160 0.0000 -175322.5922 20041.1601 640.2448 0.0000 30720.4662 -116915.7543 298.6860 -147636.2205 -116871.3816 298.8515 42.0347 -20.0321 502428.1626 14.1418 14.1000
ENERGY: 9000 1667.0105 2295.1862 3159.5008 0.0000 -175533.5290 20090.9538 665.9841 0.0000 30569.4092 -117085.4844 297.2173 -147654.8936 -117033.6383 298.3858 -5.4922 34.6609 503925.5077 8.9898 8.9837
ENERGY: 10000 1645.1160 2326.8078 3176.1163 0.0000 -176332.6152 20504.7180 665.9386 0.0000 30920.7223 -117093.1963 300.6331 -148013.9186 -117044.9764 298.5315 -51.9178 25.2266 500906.5229 -2.5223 -2.6492
TCL: Setting parameter constraintScaling to 2.5
TCL: Running for 5000 steps
ETITLE: TS BOND ANGLE DIHED IMPRP ELECT VDW BOUNDARY MISC KINETIC TOTAL TEMP POTENTIAL TOTAL3 TEMPAVG PRESSURE GPRESSURE VOLUME PRESSAVG GPRESSAVG
ENERGY: 10000 1645.1160 2326.8078 3176.1163 0.0000 -176332.6152 20504.7180 332.9693 0.0000 30918.6686 -117428.2192 300.6131 -148346.8879 -117382.6810 300.6131 -45.8092 36.5291 500906.5229 -45.8092 36.5291
ENERGY: 11000 1680.0307 2350.5474 3202.2240 0.0000 -175770.7905 20239.2297 539.9413 0.0000 30914.6657 -116844.1518 300.5742 -147758.8174 -116800.8317 300.4669 -48.4417 -17.8461 500075.2947 -9.2324 -9.3976
ENERGY: 12000 1590.0837 2370.9573 3198.9953 0.0000 -175632.8496 20184.9612 492.1021 0.0000 30622.2916 -117173.4585 297.7315 -147795.7501 -117120.6677 300.1674 26.6194 -0.4885 501103.7264 2.3073 2.9217
ENERGY: 13000 1561.4767 2317.9435 3173.0678 0.0000 -175421.7278 20111.1863 518.7426 0.0000 30739.5659 -116999.7450 298.8717 -147739.3109 -116949.9004 299.5014 -13.5770 1.3946 500194.2100 -0.0785 0.4031
ENERGY: 14000 1636.3864 2330.6151 3152.9422 0.0000 -175734.0314 20177.7357 510.4286 0.0000 30963.1833 -116962.7400 301.0459 -147925.9233 -116917.5404 300.2484 -152.9600 -19.7252 500137.8502 0.0017 0.0043
ENERGY: 15000 1623.4629 2328.0420 3189.4046 0.0000 -175812.7252 20078.6704 540.3883 0.0000 30803.7952 -117248.9619 299.4962 -148052.7571 -117197.4720 299.8330 83.8162 -82.2250 498141.3301 -16.2912 -16.3157
TCL: Setting parameter constraintScaling to 1.25
TCL: Running for 5000 steps
ETITLE: TS BOND ANGLE DIHED IMPRP ELECT VDW BOUNDARY MISC KINETIC TOTAL TEMP POTENTIAL TOTAL3 TEMPAVG PRESSURE GPRESSURE VOLUME PRESSAVG GPRESSAVG
ENERGY: 15000 1623.4629 2328.0420 3189.4046 0.0000 -175812.7253 20078.6704 270.1941 0.0000 30801.7455 -117521.2057 299.4763 -148322.9512 -117476.6403 299.4763 15.0850 -149.1154 498141.3301 15.0850 -149.1154
ENERGY: 16000 1605.3890 2415.9895 3195.3328 0.0000 -176050.1886 20363.3292 392.5412 0.0000 30948.4394 -117129.1675 300.9025 -148077.6069 -117086.7398 299.8564 89.2908 78.8385 499271.4745 0.8265 0.8056
ENERGY: 17000 1644.8464 2384.7489 3176.4014 0.0000 -175907.2381 20231.9383 393.1171 0.0000 31066.3656 -117009.8204 302.0491 -148076.1860 -116961.0639 299.8670 -22.1596 5.6323 497237.6407 -4.1633 -4.3254
ENERGY: 18000 1644.3103 2413.1246 3205.4168 0.0000 -176047.6294 20094.1058 399.3674 0.0000 30896.2598 -117395.0448 300.3952 -148291.3046 -117357.5761 299.8646 1.6504 8.7749 496855.8756 -3.9614 -3.6439
ENERGY: 19000 1619.8578 2350.7939 3211.7835 0.0000 -176221.0523 20472.9092 405.3920 0.0000 30642.2872 -117518.0287 297.9259 -148160.3160 -117467.9018 299.1945 -66.1327 -19.0924 499963.1614 -4.1633 -4.2549
ENERGY: 20000 1660.7898 2336.5778 3188.1065 0.0000 -176218.5484 20170.9320 386.4103 0.0000 30756.2498 -117719.4822 299.0339 -148475.7320 -117668.5105 299.5005 8.5163 57.4566 499820.8692 4.7200 4.9613
TCL: Setting parameter constraintScaling to 0.625
TCL: Running for 5000 steps
ETITLE: TS BOND ANGLE DIHED IMPRP ELECT VDW BOUNDARY MISC KINETIC TOTAL TEMP POTENTIAL TOTAL3 TEMPAVG PRESSURE GPRESSURE VOLUME PRESSAVG GPRESSAVG
ENERGY: 20000 1660.7898 2336.5778 3188.1065 0.0000 -176218.5484 20170.9320 193.2052 0.0000 30754.2216 -117914.7155 299.0142 -148668.9371 -117869.3374 299.0142 -86.0452 -27.2298 499820.8692 -86.0452 -27.2298
ENERGY: 21000 1670.0865 2365.9694 3189.5878 0.0000 -175621.1009 20190.0587 312.5605 0.0000 30833.9385 -117058.8996 299.7893 -147892.8381 -117020.5991 299.9553 -9.5534 35.9211 500423.8684 3.0788 2.6830
ENERGY: 22000 1634.9729 2341.7723 3206.5359 0.0000 -175922.9215 20132.4492 335.1785 0.0000 30744.2133 -117527.7995 298.9169 -148272.0127 -117484.0845 300.0361 -25.7642 48.7293 499498.4006 -4.6395 -4.8181
ENERGY: 23000 1696.4615 2408.3549 3208.0517 0.0000 -175585.8246 20035.3189 323.5346 0.0000 30776.5593 -117137.5436 299.2314 -147914.1029 -117094.0347 299.2104 21.9245 68.8258 498833.8041 -6.6537 -6.7260
ENERGY: 24000 1653.1383 2442.8537 3197.4288 0.0000 -175329.9113 19972.9588 331.5432 0.0000 30802.0465 -116929.9420 299.4792 -147731.9885 -116879.1510 300.4797 -25.4762 -37.8896 498897.8294 -1.7503 -1.9359
ENERGY: 25000 1624.7875 2346.6056 3213.8516 0.0000 -175723.9778 20120.5009 330.9444 0.0000 30973.4188 -117113.8689 301.1454 -148087.2878 -117064.0134 299.7918 -70.2713 28.3940 497975.3801 -8.1138 -7.6987
TCL: Setting parameter constraintScaling to 0.3125
TCL: Running for 5000 steps
ETITLE: TS BOND ANGLE DIHED IMPRP ELECT VDW BOUNDARY MISC KINETIC TOTAL TEMP POTENTIAL TOTAL3 TEMPAVG PRESSURE GPRESSURE VOLUME PRESSAVG GPRESSAVG
ENERGY: 25000 1624.7875 2346.6056 3213.8516 0.0000 -175723.9778 20120.5009 165.4722 0.0000 30971.3833 -117281.3766 301.1256 -148252.7599 -117241.6110 301.1256 -106.1983 -12.8560 497975.3801 -106.1983 -12.8560
ENERGY: 26000 1673.9410 2409.5794 3230.5335 0.0000 -176047.0680 20202.9096 244.0618 0.0000 30691.2311 -117594.8115 298.4018 -148286.0426 -117553.5661 298.8523 -39.3403 -4.6047 497302.1161 -3.9657 -3.9880
ENERGY: 27000 1583.7935 2406.0075 3179.6396 0.0000 -175450.1311 20007.0934 260.3133 0.0000 30682.2437 -117331.0401 298.3144 -148013.2839 -117292.8376 300.0368 -80.3987 -9.7684 497320.7628 -3.7717 -3.9365
ENERGY: 28000 1638.8826 2378.7970 3198.1324 0.0000 -175653.9994 20103.9289 264.4701 0.0000 30888.7727 -117181.0157 300.3224 -148069.7884 -117140.9660 300.2359 -32.9849 7.7005 497457.5352 -8.2284 -8.7955
ENERGY: 29000 1654.7461 2442.3006 3223.2882 0.0000 -175589.7509 20023.1456 236.9529 0.0000 30673.3079 -117336.0095 298.2275 -148009.3174 -117296.2319 299.1310 -58.6733 47.5259 497637.1259 2.8061 2.9157
ENERGY: 30000 1655.1349 2463.7910 3202.5956 0.0000 -175747.3952 20095.3187 261.7768 0.0000 30689.2615 -117379.5167 298.3826 -148068.7782 -117335.8826 299.2778 73.4406 93.7243 496634.2317 -10.4018 -10.3369
TCL: Setting parameter constraintScaling to 0.15625
TCL: Running for 5000 steps
ETITLE: TS BOND ANGLE DIHED IMPRP ELECT VDW BOUNDARY MISC KINETIC TOTAL TEMP POTENTIAL TOTAL3 TEMPAVG PRESSURE GPRESSURE VOLUME PRESSAVG GPRESSAVG
ENERGY: 30000 1655.1349 2463.7910 3202.5956 0.0000 -175747.3952 20095.3187 130.8884 0.0000 30687.2092 -117512.4574 298.3627 -148199.6666 -117469.1880 298.3627 68.4333 94.0997 496634.2317 68.4333 94.0997
ENERGY: 31000 1635.5058 2366.1077 3224.0237 0.0000 -175587.5284 19968.8724 193.7286 0.0000 31145.1826 -117054.1075 302.8154 -148199.2902 -117004.3222 300.8693 83.0351 58.1763 496933.9300 -1.6392 -2.2236
ENERGY: 32000 1622.4176 2468.9909 3211.5614 0.0000 -175937.5067 20191.3635 196.6582 0.0000 30877.5252 -117368.9899 300.2131 -148246.5151 -117321.8828 300.7674 -18.1491 25.9781 498454.7264 5.1571 5.2341
ENERGY: 33000 1640.6574 2453.8742 3195.6900 0.0000 -176154.2633 20256.3530 195.0839 0.0000 31013.6075 -117398.9973 301.5361 -148412.6048 -117353.6794 300.3107 152.8245 70.4457 497757.2724 -4.5689 -4.5472
ENERGY: 34000 1639.8434 2417.3695 3230.3016 0.0000 -175831.8294 19938.0532 211.1942 0.0000 30721.9393 -117673.1281 298.7003 -148395.0674 -117632.5094 298.2084 91.5971 53.8286 498151.4799 -10.3047 -10.2613
ENERGY: 35000 1677.8850 2458.4630 3264.5959 0.0000 -176025.7201 20057.9011 217.1055 0.0000 30686.4245 -117663.3451 298.3550 -148349.7696 -117621.2161 298.9245 55.0003 45.1386 497559.4141 2.5636 2.2834
TCL: Setting parameter constraintScaling to 0.078125
TCL: Running for 5000 steps
ETITLE: TS BOND ANGLE DIHED IMPRP ELECT VDW BOUNDARY MISC KINETIC TOTAL TEMP POTENTIAL TOTAL3 TEMPAVG PRESSURE GPRESSURE VOLUME PRESSAVG GPRESSAVG
ENERGY: 35000 1677.8850 2458.4630 3264.5959 0.0000 -176025.7201 20057.9011 108.5527 0.0000 30684.3481 -117773.9743 298.3349 -148458.3224 -117730.4751 298.3349 9.0962 -4.2348 497559.4141 9.0962 -4.2348
ENERGY: 36000 1604.0749 2399.7474 3203.9287 0.0000 -176188.5542 20054.8723 163.9622 0.0000 30766.1300 -117995.8388 299.1300 -148761.9687 -117952.1833 298.4398 -117.8821 -77.6702 497356.1899 -5.8052 -5.5131
ENERGY: 37000 1674.0378 2360.1303 3203.8737 0.0000 -175953.2544 20131.9890 174.7053 0.0000 30840.7974 -117567.7210 299.8560 -148408.5184 -117512.7443 299.6469 56.4434 29.6708 497333.1223 1.2487 1.7405
ENERGY: 38000 1663.6351 2440.0240 3231.8828 0.0000 -176588.6544 20227.9545 166.4394 0.0000 30884.2529 -117974.4657 300.2785 -148858.7186 -117920.8723 298.6183 20.1026 17.0248 496039.4681 -5.7496 -6.0544
ENERGY: 39000 1652.4323 2418.2410 3221.0125 0.0000 -175892.8504 19871.6871 167.5828 0.0000 30717.5275 -117844.3672 298.6575 -148561.8947 -117799.5752 298.9308 -154.4500 -152.6494 497775.1550 3.9111 3.9705
ENERGY: 40000 1647.6083 2406.0507 3204.8797 0.0000 -176026.3698 20086.5129 177.6349 0.0000 30841.6962 -117661.9872 299.8647 -148503.6834 -117617.5799 298.8311 -2.2368 26.3556 496329.7155 1.6535 1.8299
TCL: Setting parameter constraintScaling to 0.0390625
TCL: Running for 5000 steps
ETITLE: TS BOND ANGLE DIHED IMPRP ELECT VDW BOUNDARY MISC KINETIC TOTAL TEMP POTENTIAL TOTAL3 TEMPAVG PRESSURE GPRESSURE VOLUME PRESSAVG GPRESSAVG
ENERGY: 40000 1647.6083 2406.0507 3204.8797 0.0000 -176026.3698 20086.5129 88.8175 0.0000 30839.6476 -117752.8533 299.8448 -148592.5009 -117711.0359 299.8448 -46.4735 -9.2113 496329.7155 -46.4735 -9.2113
ENERGY: 41000 1646.0859 2459.6911 3199.6389 0.0000 -175953.9307 20129.9695 114.6112 0.0000 30914.6693 -117489.2648 300.5742 -148403.9341 -117439.1123 300.4495 -92.7063 -39.7694 497415.1779 0.7310 1.2914
ENERGY: 42000 1666.5265 2441.4472 3216.2752 0.0000 -175690.0231 20249.5845 114.5021 0.0000 30869.6446 -117132.0430 300.1364 -148001.6876 -117092.0166 300.9981 -9.0244 2.3504 498382.7671 0.5142 0.3069
ENERGY: 43000 1679.7373 2383.3523 3179.7941 0.0000 -175511.1903 19864.7628 116.2196 0.0000 30835.4233 -117451.9010 299.8037 -148287.3243 -117405.0131 300.5452 -168.1327 -170.6786 497647.0258 -0.6564 -0.9496
ENERGY: 44000 1621.1914 2420.9155 3217.0573 0.0000 -176035.4440 20391.2087 122.0689 0.0000 30767.6100 -117495.3923 299.1444 -148263.0023 -117450.6947 299.5558 83.6857 82.4579 499972.4210 18.8969 18.7703
ENERGY: 45000 1684.9337 2463.2057 3199.3548 0.0000 -175707.6913 20032.8244 125.8573 0.0000 30727.9361 -117473.5792 298.7587 -148201.5154 -117427.3578 298.8326 2.4685 42.6820 500098.5635 0.8977 0.9323
TCL: Setting parameter constraintScaling to 0.01953125
TCL: Running for 5000 steps
ETITLE: TS BOND ANGLE DIHED IMPRP ELECT VDW BOUNDARY MISC KINETIC TOTAL TEMP POTENTIAL TOTAL3 TEMPAVG PRESSURE GPRESSURE VOLUME PRESSAVG GPRESSAVG
ENERGY: 45000 1684.9337 2463.2057 3199.3548 0.0000 -175707.6913 20032.8244 62.9286 0.0000 30725.9028 -117538.5412 298.7389 -148264.4440 -117497.1366 298.7389 -13.6028 21.0119 500098.5635 -13.6028 21.0119
ENERGY: 46000 1623.0985 2431.7163 3222.9730 0.0000 -176005.1336 20120.8308 74.1188 0.0000 30905.3400 -117627.0561 300.4835 -148532.3962 -117565.6312 299.9359 -92.8051 -62.8532 497081.3370 -8.9263 -8.5931
ENERGY: 47000 1659.8970 2414.1317 3189.1667 0.0000 -176265.4174 20096.5272 84.1852 0.0000 31089.6043 -117731.9053 302.2750 -148821.5096 -117682.9481 300.1792 -88.2091 2.1156 496416.2956 -7.1665 -6.9274
ENERGY: 48000 1662.5128 2450.5381 3206.0759 0.0000 -176004.2455 20101.8851 80.9227 0.0000 30720.1426 -117782.1683 298.6829 -148502.3109 -117742.8056 298.4029 -138.9174 -47.9131 496654.9973 9.4384 9.2837
ENERGY: 49000 1605.7913 2417.4476 3215.9191 0.0000 -176029.4453 20127.5842 86.6255 0.0000 30701.4978 -117874.5798 298.5016 -148576.0776 -117820.2111 299.1262 15.2646 11.2670 496229.6616 4.7258 4.6792
ENERGY: 50000 1662.3786 2358.8670 3223.7589 0.0000 -176138.6215 20186.8212 88.2578 0.0000 30794.8225 -117823.7154 299.4090 -148618.5379 -117797.7996 299.4691 -72.9466 32.5743 497908.3555 16.9388 17.1582
TCL: Setting parameter constraintScaling to 0
TCL: Running for 5000 steps
ETITLE: TS BOND ANGLE DIHED IMPRP ELECT VDW BOUNDARY MISC KINETIC TOTAL TEMP POTENTIAL TOTAL3 TEMPAVG PRESSURE GPRESSURE VOLUME PRESSAVG GPRESSAVG
ENERGY: 50000 1662.3786 2358.8670 3223.7589 0.0000 -176138.6215 20186.8212 0.0000 0.0000 30792.7863 -117914.0095 299.3892 -148706.7958 -117874.2207 299.3892 -70.0856 32.0432 497908.3555 -70.0856 32.0432
ENERGY: 51000 1688.9779 2398.8319 3192.4141 0.0000 -175952.1931 20036.5986 0.0000 0.0000 30990.6617 -117644.7088 301.3131 -148635.3705 -117599.4018 299.6968 -188.3580 -76.4510 496161.7581 -10.1192 -10.0495
ENERGY: 52000 1626.9634 2391.3634 3257.8709 0.0000 -175856.8309 19976.2804 0.0000 0.0000 30929.3593 -117674.9934 300.7170 -148604.3527 -117635.9479 300.2863 -85.7510 48.0154 497276.0484 2.7326 3.1022
ENERGY: 53000 1643.3650 2434.1262 3228.0302 0.0000 -176110.2455 20116.7942 0.0000 0.0000 30760.4907 -117927.4391 299.0752 -148687.9298 -117880.4683 298.8537 21.6144 84.7168 495517.3506 2.2811 1.5327
ENERGY: 54000 1654.3073 2416.6484 3201.5257 0.0000 -175997.7860 19952.4207 0.0000 0.0000 30816.5297 -117956.3541 299.6200 -148772.8838 -117911.2650 298.8603 -74.0844 -26.8797 495288.1427 -5.2809 -5.3819
ENERGY: 55000 1649.3334 2370.3176 3241.6908 0.0000 -176253.2250 20110.6450 0.0000 0.0000 30801.5777 -118079.6606 299.4746 -148881.2383 -118032.4084 299.6036 -138.7133 -42.9336 496091.2736 6.3746 6.5326
