Info: SIMULATION PARAMETERS:
Info: TIMESTEP               1
Info: NUMBER OF STEPS        0
Info: STEPS PER CYCLE        10
Info: PERIODIC CELL BASIS 1  72.449 0 0
Info: PERIODIC CELL BASIS 2  0 93.247 0
Info: PERIODIC CELL BASIS 3  0 0 79.185
Info: PERIODIC CELL CENTER   -0.248 -0.156 -0.047
Info: WRAPPING WATERS AROUND PERIODIC BOUNDARIES ON OUTPUT.
Info: WRAPPING ALL CLUSTERS AROUND PERIODIC BOUNDARIES ON OUTPUT.
Info: FIRST LDB TIMESTEP     50
Info: LAST LDB TIMESTEP     -1
Info: HOM BACKGROUND SCALING 1
Info: PME BACKGROUND SCALING 1
Info: MIN ATOMS PER PATCH    40
Info: VELOCITY FILE          ../replicas/rep32/equilibration/eq1.vel
Info: CENTER OF MASS MOVING INITIALLY? NO
Info: DIELECTRIC             1
Info: EXCLUDE                SCALED ONE-FOUR
Info: 1-4 ELECTROSTATICS SCALED BY 0.833333
Info: MODIFIED 1-4 VDW PARAMETERS WILL BE USED
Info: DCD FILENAME           ../replicas/rep32/equilibration/eq2.dcd
Info: DCD FREQUENCY          5000
Info: DCD FIRST STEP         5000
Info: DCD FILE WILL CONTAIN UNIT CELL DATA
Info: XST FILENAME           ../replicas/rep32/equilibration/eq2.xst
Info: XST FREQUENCY          5000
Info: NO VELOCITY DCD OUTPUT
Info: NO FORCE DCD OUTPUT
Info: OUTPUT FILENAME        ../replicas/rep32/equilibration/eq2
Info: RESTART FILENAME       ../replicas/rep32/equilibration/eq2.restart
Info: RESTART FREQUENCY      5000
Info: BINARY RESTART FILES WILL BE USED
Info: SWITCHING ACTIVE
Info: SWITCHING ON           10
Info: SWITCHING OFF          12
Info: PAIRLIST DISTANCE      13.5
Info: PAIRLIST SHRINK RATE   0.01
Info: PAIRLIST GROW RATE     0.01
Info: PAIRLIST TRIGGER       0.3
Info: PAIRLISTS PER CYCLE    2
Info: PAIRLISTS ENABLED
Info: MARGIN                 0.48
Info: HYDROGEN GROUP CUTOFF  2.5
Info: PATCH DIMENSION        16.48
Info: ENERGY OUTPUT STEPS    500
Info: CROSSTERM ENERGY INCLUDED IN DIHEDRAL
Info: TIMING OUTPUT STEPS    5000
Info: PRESSURE OUTPUT STEPS  500
Info: HARMONIC CONSTRAINTS ACTIVE
Info: HARMONIC CONS EXP      2
Info: HARMONIC CONS SCALING  10
Info: LANGEVIN DYNAMICS ACTIVE
Info: LANGEVIN TEMPERATURE   300
Info: LANGEVIN USING BBK INTEGRATOR
Info: LANGEVIN DAMPING COEFFICIENT IS 5 INVERSE PS
Info: LANGEVIN DYNAMICS NOT APPLIED TO HYDROGENS
Info: BERENDSEN PRESSURE COUPLING ACTIVE
Info:     TARGET PRESSURE IS 1 BAR
Info:     COMPRESSIBILITY ESTIMATE IS 4.57e-05 BAR^(-1)
Info:     RELAXATION TIME IS 100 FS
Info:     APPLIED EVERY 2 STEPS
Info:     PRESSURE CONTROL IS GROUP-BASED
Info:       CELL FLUCTUATION IS ISOTROPIC
Info: PARTICLE MESH EWALD (PME) ACTIVE
Info: PME TOLERANCE               1e-06
Info: PME EWALD COEFFICIENT       0.257952
Info: PME INTERPOLATION ORDER     4
Info: PME GRID DIMENSIONS         80 96 80
Info: PME MAXIMUM GRID SPACING    1
Info: FULL ELECTROSTATIC EVALUATION FREQUENCY      2
Info: USING VERLET I (r-RESPA) MTS SCHEME.
Info: C1 SPLITTING OF LONG RANGE ELECTROSTATICS
Info: PLACING ATOMS IN PATCHES BY HYDROGEN GROUPS
Info: RIGID BONDS TO HYDROGEN : WATER
Info:         ERROR TOLERANCE : 1e-05
Info:          MAX ITERATIONS : 100
Info: RIGID WATER USING SETTLE ALGORITHM
Info: RANDOM NUMBER SEED     1503722391
Info: USE HYDROGEN BONDS?    NO
Info: Using AMBER format force field!
Info: AMBER PARM FILE        ../build/complex.top
Info: COORDINATE PDB         ../replicas/rep32/equilibration/eq1.coor
Info: Exclusions in PARM file will be ignored!
Info: SCNB (VDW SCALING)     2
Info: USING ARITHMETIC MEAN TO COMBINE L-J SIGMA PARAMETERS
Info: SUMMARY OF PARAMETERS:
Info: 71 BONDS
Info: 145 ANGLES
Info:   145 HARMONIC
Info:   0 COSINE-BASED
Info: 76 DIHEDRAL
Info: 0 IMPROPER
Info: 0 CROSSTERM
Info: 0 VDW
Info: 190 VDW_PAIRS
Info: 0 NBTHOLE_PAIRS
Info: STRUCTURE SUMMARY:
Info: 49394 ATOMS
Info: 49448 BONDS
Info: 8698 ANGLES
Info: 18780 DIHEDRALS
Info: 0 IMPROPERS
Info: 0 CROSSTERMS
Info: 0 EXCLUSIONS
Info: 2336 CONSTRAINTS
Info: 44667 RIGID BONDS
Info: 103515 DEGREES OF FREEDOM
Info: 17225 HYDROGEN GROUPS
Info: 4 ATOMS IN LARGEST HYDROGEN GROUP
Info: 17225 MIGRATION GROUPS
Info: 4 ATOMS IN LARGEST MIGRATION GROUP
Info: TOTAL MASS = 301478 amu
Info: TOTAL CHARGE = 1.00115e-05 e
Info: MASS DENSITY = 0.935846 g/cm^3
Info: ATOM DENSITY = 0.0923345 atoms/A^3
Info: ADDED 70656 IMPLICIT EXCLUSIONS
Info: NONBONDED TABLE R-SQUARED SPACING: 0.0625
Info: NONBONDED TABLE SIZE: 769 POINTS
Info: REMOVING COM VELOCITY 0.00230928 -0.0354042 0.00679447
TCL: Running for 5000 steps
ETITLE: TS BOND ANGLE DIHED IMPRP ELECT VDW BOUNDARY MISC KINETIC TOTAL TEMP POTENTIAL TOTAL3 TEMPAVG PRESSURE GPRESSURE VOLUME PRESSAVG GPRESSAVG
ENERGY: 0 382.4027 1213.0718 2919.1676 0.0000 -212659.5256 29437.4173 0.0000 0.0000 10039.9806 -168667.4856 97.6158 -178707.4662 -168657.9773 97.6158 -2418.7604 -2521.4172 534946.2959 -2418.7604 -2521.4172
ENERGY: 1000 1238.7704 1967.2689 3117.2189 0.0000 -193292.6845 26326.2162 764.3817 0.0000 24212.0713 -135666.7571 235.4068 -159878.8284 -135634.2469 219.2982 -33.4916 -21.5464 521855.0979 -17.2775 -17.4221
ENERGY: 2000 1481.1788 2206.5050 3132.6681 0.0000 -184024.0630 23174.9882 808.1793 0.0000 28063.2142 -125157.3295 272.8503 -153220.5437 -125127.7309 264.9084 -67.9229 -21.5571 516162.1404 -20.2414 -20.0292
ENERGY: 3000 1551.3878 2247.2968 3160.9540 0.0000 -179168.4271 21442.9344 793.5463 0.0000 29791.2378 -120181.0700 289.6514 -149972.3078 -120133.3577 284.6992 -30.4663 -14.8887 510454.1691 -22.9140 -22.6528
ENERGY: 4000 1551.7679 2237.1966 3161.0134 0.0000 -176869.1393 20530.4236 813.1299 0.0000 30340.9674 -118234.6405 294.9963 -148575.6079 -118198.4364 293.1103 -161.3515 -38.5694 507180.1892 -10.0326 -10.1110
ENERGY: 5000 1552.6200 2251.4477 3128.7642 0.0000 -176175.4150 20272.0825 818.5718 0.0000 30476.8596 -117675.0693 296.3175 -148151.9288 -117627.2552 296.2662 52.6496 -2.2516 503681.3546 -7.7677 -8.4760
TCL: Setting parameter constraintScaling to 5.0
TCL: Running for 5000 steps
ETITLE: TS BOND ANGLE DIHED IMPRP ELECT VDW BOUNDARY MISC KINETIC TOTAL TEMP POTENTIAL TOTAL3 TEMPAVG PRESSURE GPRESSURE VOLUME PRESSAVG GPRESSAVG
ENERGY: 5000 1552.6200 2251.4477 3128.7642 0.0000 -176175.4150 20272.0825 409.2859 0.0000 30474.8316 -118086.3831 296.2978 -148561.2147 -118037.7814 296.2978 -94.3780 -149.3564 503681.3546 -94.3780 -149.3564
ENERGY: 6000 1570.9069 2272.8548 3182.2593 0.0000 -175726.4710 20161.6942 671.1329 0.0000 30657.3185 -117210.3043 298.0721 -147867.6229 -117156.7698 298.3091 -20.4115 2.3799 504308.6687 -0.5761 -0.2378
ENERGY: 7000 1607.7942 2336.4604 3146.2084 0.0000 -175622.9861 20183.0784 656.6348 0.0000 30716.9735 -116975.8364 298.6521 -147692.8099 -116946.2618 298.6150 16.6909 50.5500 502849.6205 -8.7590 -8.8427
ENERGY: 8000 1600.2259 2297.1680 3204.1503 0.0000 -175734.9750 20118.8806 644.4217 0.0000 30817.8833 -117052.2451 299.6332 -147870.1285 -117010.0562 298.9621 -119.9423 -22.9592 501658.1750 -6.5546 -5.8502
ENERGY: 9000 1599.7588 2321.9950 3174.0370 0.0000 -175860.4859 20367.6791 628.6789 0.0000 30719.4770 -117048.8600 298.6764 -147768.3370 -117008.1811 298.3303 -8.5690 -11.3974 501677.0034 0.1451 -0.4817
ENERGY: 10000 1583.8320 2259.2600 3185.2430 0.0000 -175775.7179 20148.3335 630.2946 0.0000 30907.7976 -117060.9573 300.5074 -147968.7549 -117017.9119 298.9737 23.7152 3.8118 501253.1179 -12.7124 -13.0309
TCL: Setting parameter constraintScaling to 2.5
TCL: Running for 5000 steps
ETITLE: TS BOND ANGLE DIHED IMPRP ELECT VDW BOUNDARY MISC KINETIC TOTAL TEMP POTENTIAL TOTAL3 TEMPAVG PRESSURE GPRESSURE VOLUME PRESSAVG GPRESSAVG
ENERGY: 10000 1583.8320 2259.2600 3185.2430 0.0000 -175775.7180 20148.3335 315.1473 0.0000 30905.7708 -117378.1314 300.4877 -148283.9022 -117334.6315 300.4877 -7.9259 -34.5091 501253.1179 -7.9259 -34.5091
ENERGY: 11000 1573.9599 2387.0962 3174.5917 0.0000 -175546.3163 20132.7100 499.9532 0.0000 30728.8635 -117049.1419 298.7677 -147778.0054 -116998.7382 299.1708 39.9393 -15.9081 502167.8447 -0.1068 -0.4861
ENERGY: 12000 1646.8349 2357.0188 3178.2473 0.0000 -175269.3708 19761.1938 518.7004 0.0000 30861.3751 -116946.0004 300.0560 -147807.3756 -116903.9903 299.7213 -32.6948 -61.1488 500205.6853 7.0562 6.3308
ENERGY: 13000 1561.0053 2310.2540 3158.8855 0.0000 -175031.1820 19754.1824 495.6917 0.0000 30634.1896 -117116.9736 297.8472 -147751.1633 -117071.7890 299.4794 28.4997 23.9082 499941.1046 8.5146 8.5638
ENERGY: 14000 1581.0740 2366.3625 3174.4439 0.0000 -175767.6388 19962.5120 519.2206 0.0000 30696.6683 -117467.3575 298.4546 -148164.0258 -117426.1774 299.0130 -81.7423 -21.7685 498168.9626 -6.1911 -6.0555
ENERGY: 15000 1598.4587 2340.8648 3185.0060 0.0000 -175454.6392 19890.0166 523.3630 0.0000 31064.0391 -116852.8911 302.0265 -147916.9302 -116804.0875 299.3496 5.2598 58.7396 500176.4652 21.8606 21.7357
TCL: Setting parameter constraintScaling to 1.25
TCL: Running for 5000 steps
ETITLE: TS BOND ANGLE DIHED IMPRP ELECT VDW BOUNDARY MISC KINETIC TOTAL TEMP POTENTIAL TOTAL3 TEMPAVG PRESSURE GPRESSURE VOLUME PRESSAVG GPRESSAVG
ENERGY: 15000 1598.4587 2340.8648 3185.0060 0.0000 -175454.6392 19890.0166 261.6815 0.0000 31061.9651 -117116.6466 302.0063 -148178.6117 -117073.9789 302.0063 -45.9952 3.2530 500176.4652 -45.9952 3.2530
ENERGY: 16000 1576.9282 2321.1578 3190.7362 0.0000 -175615.0994 19996.5768 408.3159 0.0000 30926.2935 -117195.0909 300.6872 -148121.3845 -117150.7950 299.6759 -51.4613 -36.6378 498557.6755 -6.8457 -7.0410
ENERGY: 17000 1600.5752 2339.9543 3179.4484 0.0000 -175371.7042 19824.7419 394.6152 0.0000 30717.2753 -117315.0940 298.6550 -148032.3693 -117269.3326 300.3341 12.8947 29.2407 498322.6722 -7.0440 -6.8789
ENERGY: 18000 1634.9961 2377.9277 3171.8485 0.0000 -175790.1938 20125.1295 428.9805 0.0000 31000.7097 -117050.6019 301.4107 -148051.3115 -117024.5264 300.1674 -38.7071 -50.1591 500239.6328 12.8761 13.0161
ENERGY: 19000 1655.8444 2349.1101 3180.8385 0.0000 -175322.2262 19802.0106 395.8288 0.0000 30788.7562 -117149.8378 299.3500 -147938.5940 -117102.3356 299.9005 24.0111 60.0178 498201.6794 1.1637 1.4763
ENERGY: 20000 1647.5692 2376.2115 3219.6460 0.0000 -176215.1963 20426.1271 409.1959 0.0000 30790.3282 -117346.1183 299.3653 -148136.4465 -117301.8471 299.0747 -18.1304 -50.0138 498856.9397 5.8300 5.5730
TCL: Setting parameter constraintScaling to 0.625
TCL: Running for 5000 steps
ETITLE: TS BOND ANGLE DIHED IMPRP ELECT VDW BOUNDARY MISC KINETIC TOTAL TEMP POTENTIAL TOTAL3 TEMPAVG PRESSURE GPRESSURE VOLUME PRESSAVG GPRESSAVG
ENERGY: 20000 1647.5692 2376.2115 3219.6460 0.0000 -176215.1963 20426.1271 204.5980 0.0000 30788.3028 -117552.7417 299.3456 -148341.0445 -117511.0709 299.3456 -33.7088 -61.3524 498856.9397 -33.7088 -61.3524
ENERGY: 21000 1653.4693 2365.9569 3190.8179 0.0000 -176028.0045 20194.5905 296.7886 0.0000 30870.7555 -117455.6259 300.1472 -148326.3814 -117413.0472 299.4599 -86.8445 -14.8680 498180.5827 -23.5733 -23.5588
ENERGY: 22000 1647.5164 2330.9381 3188.8885 0.0000 -175838.4429 20179.9890 296.6332 0.0000 30827.2522 -117367.2255 299.7243 -148194.4777 -117323.7577 299.9619 -98.1587 -53.0540 498364.3793 -4.9676 -5.0082
ENERGY: 23000 1684.8921 2404.9309 3225.9927 0.0000 -175784.1774 20220.9907 320.4204 0.0000 30761.4187 -117165.5319 299.0842 -147926.9506 -117131.6093 300.6207 -51.1461 -27.5238 498764.1964 -2.2815 -1.5686
ENERGY: 24000 1607.2415 2393.9828 3194.5720 0.0000 -175987.0499 20064.5187 312.2910 0.0000 30853.6363 -117560.8076 299.9808 -148414.4439 -117515.8370 299.2217 -78.9192 -50.7447 498277.7737 4.8338 5.4102
ENERGY: 25000 1685.3580 2386.4651 3182.7579 0.0000 -175719.4908 19965.4589 322.9128 0.0000 30866.0126 -117310.5255 300.1011 -148176.5381 -117265.8625 299.8330 -48.3619 -59.4048 497565.9524 7.9049 8.3406
TCL: Setting parameter constraintScaling to 0.3125
TCL: Running for 5000 steps
ETITLE: TS BOND ANGLE DIHED IMPRP ELECT VDW BOUNDARY MISC KINETIC TOTAL TEMP POTENTIAL TOTAL3 TEMPAVG PRESSURE GPRESSURE VOLUME PRESSAVG GPRESSAVG
ENERGY: 25000 1685.3580 2386.4651 3182.7579 0.0000 -175719.4908 19965.4589 161.4564 0.0000 30863.9791 -117474.0154 300.0814 -148337.9945 -117426.9885 300.0814 -64.1914 -85.5359 497565.9524 -64.1914 -85.5359
ENERGY: 26000 1630.0847 2452.0811 3179.4856 0.0000 -175928.4572 20093.0218 237.2419 0.0000 30727.4659 -117609.0761 298.7541 -148336.5421 -117568.7198 298.9011 16.5378 -30.8362 496937.1996 -7.3543 -7.2751
ENERGY: 27000 1662.1506 2419.0646 3181.2785 0.0000 -175796.6622 20186.7489 241.5163 0.0000 30600.9585 -117504.9449 297.5241 -148105.9034 -117466.2373 300.0604 15.0087 89.0440 496994.9506 -3.6494 -3.6849
ENERGY: 28000 1594.0989 2308.7334 3196.8557 0.0000 -175961.1230 19896.9812 248.6515 0.0000 30800.0847 -117915.7177 299.4601 -148715.8024 -117873.1943 298.9087 -83.6839 -17.7369 496258.3466 2.0912 2.0062
ENERGY: 29000 1621.8459 2386.4950 3215.9799 0.0000 -175814.3262 20112.3588 251.1160 0.0000 30768.1007 -117458.4299 299.1492 -148226.5306 -117401.2772 299.4621 89.2688 -5.3649 496422.6210 3.9359 3.4758
ENERGY: 30000 1612.8228 2403.9342 3214.7510 0.0000 -175994.4559 20194.5934 257.4328 0.0000 30942.6921 -117368.2294 300.8467 -148310.9216 -117316.8408 299.9343 -67.2924 53.3582 498502.8827 7.4543 7.8887
TCL: Setting parameter constraintScaling to 0.15625
TCL: Running for 5000 steps
ETITLE: TS BOND ANGLE DIHED IMPRP ELECT VDW BOUNDARY MISC KINETIC TOTAL TEMP POTENTIAL TOTAL3 TEMPAVG PRESSURE GPRESSURE VOLUME PRESSAVG GPRESSAVG
ENERGY: 30000 1612.8228 2403.9342 3214.7510 0.0000 -175994.4559 20194.5934 128.7164 0.0000 30940.6437 -117498.9943 300.8267 -148439.6380 -117457.7181 300.8267 -66.9982 39.5477 498502.8827 -66.9982 39.5477
ENERGY: 31000 1613.3872 2382.2009 3232.1533 0.0000 -175588.1421 19922.8726 202.2231 0.0000 30872.5142 -117362.7908 300.1643 -148235.3050 -117317.3549 299.7301 -64.0291 17.9202 497745.4532 -0.9021 -0.5599
ENERGY: 32000 1641.3456 2371.7746 3205.2804 0.0000 -175892.1455 20121.8122 183.4775 0.0000 30863.2928 -117505.1625 300.0747 -148368.4552 -117456.4545 299.6632 -152.0813 -20.1060 496174.4831 0.3907 0.0907
ENERGY: 33000 1613.2593 2409.5667 3228.6362 0.0000 -176164.9513 20188.0493 205.6765 0.0000 30722.1939 -117797.5694 298.7028 -148519.7632 -117762.6518 299.1973 -46.5811 -11.9395 496968.6289 4.0653 4.3316
ENERGY: 34000 1640.6767 2437.1208 3182.2724 0.0000 -175902.2654 20002.7837 200.5377 0.0000 30800.2093 -117638.6650 299.4613 -148438.8742 -117597.1496 299.2956 -40.3232 -4.1525 498434.1896 -0.3119 -0.8717
ENERGY: 35000 1665.8127 2463.8332 3235.1067 0.0000 -176015.6561 20121.3823 200.8357 0.0000 30786.3900 -117542.2956 299.3270 -148328.6856 -117493.0516 299.5448 -160.3079 -30.7032 496087.2064 -12.8998 -12.7908
TCL: Setting parameter constraintScaling to 0.078125
TCL: Running for 5000 steps
ETITLE: TS BOND ANGLE DIHED IMPRP ELECT VDW BOUNDARY MISC KINETIC TOTAL TEMP POTENTIAL TOTAL3 TEMPAVG PRESSURE GPRESSURE VOLUME PRESSAVG GPRESSAVG
ENERGY: 35000 1665.8127 2463.8332 3235.1067 0.0000 -176015.6561 20121.3823 100.4178 0.0000 30784.3652 -117644.7382 299.3073 -148429.1034 -117602.0266 299.3073 -169.7752 -38.4770 496087.2064 -169.7752 -38.4770
ENERGY: 36000 1609.1806 2405.0017 3227.1114 0.0000 -175435.4940 19798.3062 142.6061 0.0000 30988.6365 -117264.6516 301.2934 -148253.2881 -117214.8928 300.0749 160.4696 165.8184 496739.1474 5.2351 4.6907
ENERGY: 37000 1614.4937 2408.9660 3220.4428 0.0000 -175096.1525 19872.1818 148.3012 0.0000 30712.4171 -117119.3501 298.6078 -147831.7671 -117076.1440 300.9669 -72.1602 -15.6183 497432.2719 6.1745 6.5182
ENERGY: 38000 1669.3581 2394.6175 3206.7305 0.0000 -175619.9772 19911.2010 155.9395 0.0000 31078.5193 -117203.6113 302.1673 -148282.1306 -117151.7393 302.1001 -101.6680 -121.6845 497844.5031 11.3717 11.1925
ENERGY: 39000 1634.2306 2439.5345 3230.9375 0.0000 -176152.5279 20148.2170 168.6114 0.0000 30771.0984 -117759.8985 299.1783 -148530.9969 -117714.4831 300.0180 -47.4330 87.8830 497201.4148 3.4109 3.5147
ENERGY: 40000 1615.3496 2414.2954 3237.1213 0.0000 -175664.0618 19903.3666 156.0295 0.0000 30721.9141 -117615.9853 298.7001 -148337.8994 -117574.7980 299.3629 48.2099 -24.0988 496981.9593 -7.3276 -7.1812
TCL: Setting parameter constraintScaling to 0.0390625
TCL: Running for 5000 steps
ETITLE: TS BOND ANGLE DIHED IMPRP ELECT VDW BOUNDARY MISC KINETIC TOTAL TEMP POTENTIAL TOTAL3 TEMPAVG PRESSURE GPRESSURE VOLUME PRESSAVG GPRESSAVG
ENERGY: 40000 1615.3496 2414.2954 3237.1213 0.0000 -175664.0619 19903.3666 78.0147 0.0000 30719.8734 -117696.0408 298.6803 -148415.9142 -117651.0801 298.6803 21.9014 -48.6089 496981.9593 21.9014 -48.6089
ENERGY: 41000 1627.9688 2459.3387 3216.4667 0.0000 -175418.8774 19960.2557 109.4962 0.0000 30822.3100 -117223.0412 299.6762 -148045.3512 -117179.5390 299.3663 92.1356 47.5376 497100.3877 0.3109 0.0019
ENERGY: 42000 1678.1473 2323.9316 3231.6676 0.0000 -176002.8364 20140.7569 106.7714 0.0000 30901.3599 -117620.2018 300.4448 -148521.5616 -117583.5642 299.0425 -120.3217 -12.9170 498095.3820 8.7153 8.7745
ENERGY: 43000 1629.3908 2346.6639 3217.2043 0.0000 -175738.3193 19898.6572 123.4940 0.0000 30807.8172 -117715.0919 299.5353 -148522.9091 -117662.7802 299.9348 -9.7716 26.6188 497253.4902 -13.6498 -13.1978
ENERGY: 44000 1619.2665 2421.0010 3229.3805 0.0000 -175883.8991 20065.7773 124.2973 0.0000 30833.7326 -117590.4437 299.7873 -148424.1763 -117551.6989 299.4861 -80.1573 -73.4417 497374.1493 8.4091 8.4044
ENERGY: 45000 1672.1745 2348.2926 3229.6508 0.0000 -175816.3497 20135.8700 123.7330 0.0000 30932.0698 -117374.5590 300.7434 -148306.6288 -117321.1214 300.2859 -29.4826 -38.5484 496931.8129 -3.8118 -3.5671
TCL: Setting parameter constraintScaling to 0.01953125
TCL: Running for 5000 steps
ETITLE: TS BOND ANGLE DIHED IMPRP ELECT VDW BOUNDARY MISC KINETIC TOTAL TEMP POTENTIAL TOTAL3 TEMPAVG PRESSURE GPRESSURE VOLUME PRESSAVG GPRESSAVG
ENERGY: 45000 1672.1745 2348.2926 3229.6508 0.0000 -175816.3497 20135.8700 61.8665 0.0000 30930.0366 -117438.4586 300.7236 -148368.4953 -117396.4002 300.7236 -43.2420 -51.2604 496931.8129 -43.2420 -51.2604
ENERGY: 46000 1661.6434 2376.0508 3258.2732 0.0000 -175982.6907 20034.7812 72.4604 0.0000 30919.7107 -117659.7710 300.6232 -148579.4817 -117617.7429 300.4208 -52.3813 -15.5304 498802.3861 -3.4916 -3.5131
ENERGY: 47000 1617.2780 2388.5737 3200.8196 0.0000 -175802.4254 19964.6725 87.4452 0.0000 31108.5685 -117435.0679 302.4594 -148543.6364 -117386.6611 300.1834 93.4238 22.4480 499328.5543 5.9368 6.6228
ENERGY: 48000 1653.7834 2421.0284 3190.1453 0.0000 -175857.9575 19996.6535 88.6421 0.0000 30723.8361 -117783.8688 298.7188 -148507.7049 -117733.4847 299.8009 -15.0452 45.3685 497122.6773 -12.3208 -12.4808
ENERGY: 49000 1633.0767 2434.6728 3235.4981 0.0000 -175747.0101 20019.2663 89.9405 0.0000 30602.8064 -117731.7492 297.5421 -148334.5556 -117694.5729 299.3300 -86.7987 -79.8952 498132.8814 0.1773 0.1955
ENERGY: 50000 1634.0683 2419.2714 3184.3170 0.0000 -175523.5569 20095.3803 90.0303 0.0000 30614.1095 -117486.3802 297.6519 -148100.4897 -117433.3014 299.0719 57.6802 62.9396 499631.0933 16.6046 16.4949
TCL: Setting parameter constraintScaling to 0
TCL: Running for 5000 steps
ETITLE: TS BOND ANGLE DIHED IMPRP ELECT VDW BOUNDARY MISC KINETIC TOTAL TEMP POTENTIAL TOTAL3 TEMPAVG PRESSURE GPRESSURE VOLUME PRESSAVG GPRESSAVG
ENERGY: 50000 1634.0683 2419.2714 3184.3170 0.0000 -175523.5569 20095.3803 0.0000 0.0000 30612.0896 -117578.4304 297.6323 -148190.5200 -117532.6330 297.6323 62.2825 64.4626 499631.0933 62.2825 64.4626
ENERGY: 51000 1599.4067 2434.6410 3195.3418 0.0000 -175394.4425 19794.3177 0.0000 0.0000 30851.4543 -117519.2810 299.9596 -148370.7353 -117467.3239 299.5601 39.9757 25.6081 498045.8753 6.9408 6.6293
ENERGY: 52000 1677.4819 2390.8842 3237.8325 0.0000 -176235.1983 20264.8160 0.0000 0.0000 30738.5171 -117925.6665 298.8615 -148664.1836 -117875.9716 299.7764 -21.9349 70.3783 497777.5016 -5.3555 -5.1655
ENERGY: 53000 1615.3725 2413.5414 3185.3101 0.0000 -176294.6631 20138.7556 0.0000 0.0000 30533.2049 -118408.4785 296.8653 -148941.6834 -118364.2800 298.5699 -24.7216 76.2674 497511.1660 4.1392 4.3853
ENERGY: 54000 1623.1910 2432.5060 3216.0305 0.0000 -176625.1599 20058.9454 0.0000 0.0000 30759.0345 -118535.4525 299.0610 -149294.4870 -118490.4303 297.5695 -22.6119 -27.7027 495616.0016 -9.2542 -9.1029
ENERGY: 55000 1654.8023 2367.8846 3225.6097 0.0000 -176431.3392 20030.9907 0.0000 0.0000 30644.0796 -118507.9724 297.9433 -149152.0519 -118468.5707 298.4806 -41.4825 -42.7419 493950.6401 -7.6071 -7.9128
