Info: SIMULATION PARAMETERS:
Info: TIMESTEP               2
Info: NUMBER OF STEPS        0
Info: STEPS PER CYCLE        10
Info: PERIODIC CELL BASIS 1  72.449 0 0
Info: PERIODIC CELL BASIS 2  0 93.247 0
Info: PERIODIC CELL BASIS 3  0 0 79.185
Info: PERIODIC CELL CENTER   -0.248 -0.156 -0.047
Info: WRAPPING WATERS AROUND PERIODIC BOUNDARIES ON OUTPUT.
Info: WRAPPING ALL CLUSTERS AROUND PERIODIC BOUNDARIES ON OUTPUT.
Info: FIRST LDB TIMESTEP     50
Info: LAST LDB TIMESTEP     -1
Info: HOM BACKGROUND SCALING 1
Info: PME BACKGROUND SCALING 1
Info: MIN ATOMS PER PATCH    40
Info: INITIAL TEMPERATURE    0
Info: CENTER OF MASS MOVING INITIALLY? NO
Info: DIELECTRIC             1
Info: EXCLUDE                SCALED ONE-FOUR
Info: 1-4 ELECTROSTATICS SCALED BY 0.833333
Info: MODIFIED 1-4 VDW PARAMETERS WILL BE USED
Info: NO DCD TRAJECTORY OUTPUT
Info: NO EXTENDED SYSTEM TRAJECTORY OUTPUT
Info: NO VELOCITY DCD OUTPUT
Info: NO FORCE DCD OUTPUT
Info: OUTPUT FILENAME        ../replicas/rep46/equilibration/eq0
Info: NO RESTART FILE
Info: SWITCHING ACTIVE
Info: SWITCHING ON           10
Info: SWITCHING OFF          12
Info: PAIRLIST DISTANCE      13.5
Info: PAIRLIST SHRINK RATE   0.01
Info: PAIRLIST GROW RATE     0.01
Info: PAIRLIST TRIGGER       0.3
Info: PAIRLISTS PER CYCLE    2
Info: PAIRLISTS ENABLED
Info: MARGIN                 0
Info: HYDROGEN GROUP CUTOFF  2.5
Info: PATCH DIMENSION        16
Info: ENERGY OUTPUT STEPS    500
Info: CROSSTERM ENERGY INCLUDED IN DIHEDRAL
Info: TIMING OUTPUT STEPS    5000
Info: PRESSURE OUTPUT STEPS  500
Info: HARMONIC CONSTRAINTS ACTIVE
Info: HARMONIC CONS EXP      2
Info: HARMONIC CONS SCALING  10
Info: CONJUGATE GRADIENT MINIMIZATION ACTIVE
Info: LINE MINIMIZATION GOAL = 0.001
Info: BABY STEP SIZE = 0.01
Info: TINY STEP SIZE = 1e-06
Info: PARTICLE MESH EWALD (PME) ACTIVE
Info: PME TOLERANCE               1e-06
Info: PME EWALD COEFFICIENT       0.257952
Info: PME INTERPOLATION ORDER     4
Info: PME GRID DIMENSIONS         80 96 80
Info: PME MAXIMUM GRID SPACING    1
Info: FULL ELECTROSTATIC EVALUATION FREQUENCY      2
Info: USING VERLET I (r-RESPA) MTS SCHEME.
Info: C1 SPLITTING OF LONG RANGE ELECTROSTATICS
Info: PLACING ATOMS IN PATCHES BY HYDROGEN GROUPS
Info: RIGID BONDS TO HYDROGEN : ALL
Info:         ERROR TOLERANCE : 1e-05
Info:          MAX ITERATIONS : 100
Info: RIGID WATER USING SETTLE ALGORITHM
Info: RANDOM NUMBER SEED     1503692267
Info: USE HYDROGEN BONDS?    NO
Info: Using AMBER format force field!
Info: AMBER PARM FILE        ../build/complex.top
Info: COORDINATE PDB         ../build/complex.pdb
Info: Exclusions in PARM file will be ignored!
Info: SCNB (VDW SCALING)     2
Info: USING ARITHMETIC MEAN TO COMBINE L-J SIGMA PARAMETERS
Info: SUMMARY OF PARAMETERS:
Info: 71 BONDS
Info: 145 ANGLES
Info: 76 DIHEDRAL
Info: 0 IMPROPER
Info: 0 CROSSTERM
Info: 0 VDW
Info: 190 VDW_PAIRS
Info: 0 NBTHOLE_PAIRS
Info: STRUCTURE SUMMARY:
Info: 49394 ATOMS
Info: 49448 BONDS
Info: 8698 ANGLES
Info: 18780 DIHEDRALS
Info: 0 IMPROPERS
Info: 0 CROSSTERMS
Info: 0 EXCLUSIONS
Info: 2336 CONSTRAINTS
Info: 47058 RIGID BONDS
Info: 101124 DEGREES OF FREEDOM
Info: 17225 HYDROGEN GROUPS
Info: 4 ATOMS IN LARGEST HYDROGEN GROUP
Info: 17225 MIGRATION GROUPS
Info: 4 ATOMS IN LARGEST MIGRATION GROUP
Info: TOTAL MASS = 301478 amu
Info: TOTAL CHARGE = 1.00115e-05 e
Info: MASS DENSITY = 0.935846 g/cm^3
Info: ATOM DENSITY = 0.0923345 atoms/A^3
Info: ADDED 70656 IMPLICIT EXCLUSIONS
Info: NONBONDED TABLE R-SQUARED SPACING: 0.0625
Info: NONBONDED TABLE SIZE: 769 POINTS
Info: REMOVING COM VELOCITY 0 0 0
TCL: Minimizing for 100 steps
ETITLE: TS BOND ANGLE DIHED IMPRP ELECT VDW BOUNDARY MISC KINETIC TOTAL TEMP POTENTIAL TOTAL3 TEMPAVG PRESSURE GPRESSURE VOLUME PRESSAVG GPRESSAVG
ENERGY: 0 155.4176 1012.2698 2855.7272 0.0000 -154496.7912 207729.2052 0.0468 0.0000 0.0000 57255.8754 0.0000 57255.8754 57255.8754 0.0000 116350.2532 86546.1670 534946.2959 116350.2532 86546.1670
ENERGY: 20 304.7551 935.7911 2893.4663 0.0000 -158672.9406 17936.6594 143.9454 0.0000 0.0000 -136458.3233 0.0000 -136458.3233 -136458.3233 0.0000 16523.9387 -239.4558 534946.2959 16523.9387 -239.4558
ENERGY: 40 198.7442 799.5727 2896.9273 0.0000 -162811.4533 16417.9537 221.3030 0.0000 0.0000 -142276.9525 0.0000 -142276.9525 -142276.9525 0.0000 15011.2703 -2135.4698 534946.2959 15011.2703 -2135.4698
ENERGY: 60 130.5283 715.3440 2898.2166 0.0000 -167496.1563 15446.7540 315.2796 0.0000 0.0000 -147990.0338 0.0000 -147990.0338 -147990.0338 0.0000 13793.8839 -3799.3985 534946.2959 13793.8839 -3799.3985
ENERGY: 80 431.2734 765.6308 2904.3786 0.0000 -169937.5305 15121.1523 372.0122 0.0000 0.0000 -150343.0832 0.0000 -150343.0832 -150343.0832 0.0000 13270.3306 -4577.2452 534946.2959 13270.3306 -4577.2452
ENERGY: 100 129.7134 708.0647 2904.2780 0.0000 -171050.0655 15018.6537 384.2000 0.0000 0.0000 -151905.1557 0.0000 -151905.1557 -151905.1557 0.0000 13092.9130 -4843.6312 534946.2959 13092.9130 -4843.6312
TCL: Setting parameter constraintScaling to 5.0
TCL: Minimizing for 100 steps
ETITLE: TS BOND ANGLE DIHED IMPRP ELECT VDW BOUNDARY MISC KINETIC TOTAL TEMP POTENTIAL TOTAL3 TEMPAVG PRESSURE GPRESSURE VOLUME PRESSAVG GPRESSAVG
ENERGY: 100 129.7134 708.0647 2904.2780 0.0000 -171050.0655 15018.6537 192.1000 0.0000 0.0000 -152097.2557 0.0000 -152097.2557 -152097.2557 0.0000 13703.5081 -22944.4542 534946.2959 13703.5081 -22944.4542
ENERGY: 120 118.6821 680.2876 2909.9066 0.0000 -172396.3124 14830.1206 259.9549 0.0000 0.0000 -153597.3607 0.0000 -153597.3607 -153597.3607 0.0000 13320.9475 -4756.3069 534946.2959 13320.9475 -4756.3069
ENERGY: 140 109.1484 671.1471 2912.0863 0.0000 -174830.2498 14716.1440 337.7304 0.0000 0.0000 -156083.9937 0.0000 -156083.9937 -156083.9937 0.0000 12908.9604 -5423.1437 534946.2959 12908.9604 -5423.1437
ENERGY: 160 125.8532 667.1498 2914.1926 0.0000 -175967.0706 14735.1350 362.9194 0.0000 0.0000 -157161.8205 0.0000 -157161.8205 -157161.8205 0.0000 12806.8936 -5637.2799 534946.2959 12806.8936 -5637.2799
ENERGY: 180 303.5009 659.6824 2917.2966 0.0000 -177408.7340 14815.0171 395.3831 0.0000 0.0000 -158317.8539 0.0000 -158317.8539 -158317.8539 0.0000 12699.3162 -5894.3160 534946.2959 12699.3162 -5894.3160
ENERGY: 200 109.2071 628.4735 2923.3576 0.0000 -179543.7088 15071.1329 441.8785 0.0000 0.0000 -160369.6592 0.0000 -160369.6592 -160369.6592 0.0000 12659.9915 -6155.2073 534946.2959 12659.9915 -6155.2073
TCL: Setting parameter constraintScaling to 2.5
TCL: Minimizing for 100 steps
ETITLE: TS BOND ANGLE DIHED IMPRP ELECT VDW BOUNDARY MISC KINETIC TOTAL TEMP POTENTIAL TOTAL3 TEMPAVG PRESSURE GPRESSURE VOLUME PRESSAVG GPRESSAVG
ENERGY: 200 109.2071 628.4735 2923.3576 0.0000 -179543.7088 15071.1329 220.9392 0.0000 0.0000 -160590.5984 0.0000 -160590.5984 -160590.5984 0.0000 13208.4123 -25274.3362 534946.2959 13208.4123 -25274.3362
ENERGY: 220 169.1787 639.8463 2924.9570 0.0000 -180453.7239 15113.9425 291.3032 0.0000 0.0000 -161314.4961 0.0000 -161314.4961 -161314.4961 0.0000 13002.3874 -5917.9993 534946.2959 13002.3874 -5917.9993
ENERGY: 240 251.6629 643.2183 2921.4148 0.0000 -181893.4788 15358.7201 339.5708 0.0000 0.0000 -162378.8919 0.0000 -162378.8919 -162378.8919 0.0000 12963.8796 -6110.9420 534946.2959 12963.8796 -6110.9420
ENERGY: 260 174.8301 639.0660 2923.9284 0.0000 -184165.1231 15902.8761 436.7845 0.0000 0.0000 -164087.6379 0.0000 -164087.6379 -164087.6379 0.0000 13007.9994 -6309.1445 534946.2959 13007.9994 -6309.1445
ENERGY: 280 146.2789 648.6896 2918.2245 0.0000 -184695.7339 16063.8511 426.9101 0.0000 0.0000 -164491.7798 0.0000 -164491.7798 -164491.7798 0.0000 13127.0987 -6263.3440 534946.2959 13127.0987 -6263.3440
ENERGY: 300 243.6910 693.0163 2927.4888 0.0000 -186404.2419 16619.2807 426.1815 0.0000 0.0000 -165494.5836 0.0000 -165494.5836 -165494.5836 0.0000 13376.4699 -6208.5367 534946.2959 13376.4699 -6208.5367
TCL: Setting parameter constraintScaling to 1.25
TCL: Minimizing for 100 steps
ETITLE: TS BOND ANGLE DIHED IMPRP ELECT VDW BOUNDARY MISC KINETIC TOTAL TEMP POTENTIAL TOTAL3 TEMPAVG PRESSURE GPRESSURE VOLUME PRESSAVG GPRESSAVG
ENERGY: 300 243.6910 693.0163 2927.4888 0.0000 -186404.2419 16619.2807 213.0908 0.0000 0.0000 -165707.6743 0.0000 -165707.6743 -165707.6743 0.0000 13787.1909 -26290.0688 534946.2959 13787.1909 -26290.0688
ENERGY: 320 183.9259 668.9590 2910.0476 0.0000 -186963.8786 16740.7123 255.3741 0.0000 0.0000 -166204.8598 0.0000 -166204.8598 -166204.8598 0.0000 13766.2873 -5876.5029 534946.2959 13766.2873 -5876.5029
ENERGY: 340 338.8549 711.2491 2917.2827 0.0000 -188189.6216 17072.0877 325.4646 0.0000 0.0000 -166824.6826 0.0000 -166824.6826 -166824.6826 0.0000 13740.9199 -6024.5874 534946.2959 13740.9199 -6024.5874
ENERGY: 360 134.5120 664.3424 2903.4312 0.0000 -189895.6761 17689.5481 395.5408 0.0000 0.0000 -168108.3016 0.0000 -168108.3016 -168108.3016 0.0000 13962.9948 -6015.1863 534946.2959 13962.9948 -6015.1863
ENERGY: 380 330.5022 739.1986 2911.0821 0.0000 -190508.1213 17915.0745 394.6432 0.0000 0.0000 -168217.6207 0.0000 -168217.6207 -168217.6207 0.0000 14052.5479 -5991.2706 534946.2959 14052.5479 -5991.2706
ENERGY: 400 158.3122 669.7410 2899.7600 0.0000 -191303.9748 18241.4548 376.6133 0.0000 0.0000 -168958.0935 0.0000 -168958.0935 -168958.0935 0.0000 14285.7984 -5856.5251 534946.2959 14285.7984 -5856.5251
TCL: Setting parameter constraintScaling to 0.625
TCL: Minimizing for 100 steps
ETITLE: TS BOND ANGLE DIHED IMPRP ELECT VDW BOUNDARY MISC KINETIC TOTAL TEMP POTENTIAL TOTAL3 TEMPAVG PRESSURE GPRESSURE VOLUME PRESSAVG GPRESSAVG
ENERGY: 400 158.3122 669.7410 2899.7600 0.0000 -191303.9748 18241.4548 188.3066 0.0000 0.0000 -169146.4001 0.0000 -169146.4001 -169146.4001 0.0000 14578.7598 -26660.1372 534946.2959 14578.7598 -26660.1372
ENERGY: 420 144.4265 639.6687 2901.5358 0.0000 -191565.5700 18296.3200 202.8774 0.0000 0.0000 -169380.7416 0.0000 -169380.7416 -169380.7416 0.0000 14528.5431 -5618.0873 534946.2959 14528.5431 -5618.0873
ENERGY: 440 192.0694 758.1160 2898.7466 0.0000 -192663.3815 18668.4133 267.5637 0.0000 0.0000 -169878.4724 0.0000 -169878.4724 -169878.4724 0.0000 14574.4209 -5712.5791 534946.2959 14574.4209 -5712.5791
ENERGY: 460 160.2696 654.6105 2890.4838 0.0000 -192859.8196 18717.7197 270.1698 0.0000 0.0000 -170166.5662 0.0000 -170166.5662 -170166.5662 0.0000 14601.6196 -5690.0287 534946.2959 14601.6196 -5690.0287
ENERGY: 480 173.5423 701.6401 2889.1241 0.0000 -193433.8530 18970.1883 269.9878 0.0000 0.0000 -170429.3704 0.0000 -170429.3704 -170429.3704 0.0000 14771.4476 -5598.5308 534946.2959 14771.4476 -5598.5308
ENERGY: 500 144.4916 680.6620 2905.7820 0.0000 -194974.0807 19672.2759 283.1685 0.0000 0.0000 -171287.7007 0.0000 -171287.7007 -171287.7007 0.0000 15153.9176 -5380.8906 534946.2959 15153.9176 -5380.8906
TCL: Setting parameter constraintScaling to 0.3125
TCL: Minimizing for 100 steps
ETITLE: TS BOND ANGLE DIHED IMPRP ELECT VDW BOUNDARY MISC KINETIC TOTAL TEMP POTENTIAL TOTAL3 TEMPAVG PRESSURE GPRESSURE VOLUME PRESSAVG GPRESSAVG
ENERGY: 500 144.4916 680.6620 2905.7820 0.0000 -194974.0807 19672.2759 141.5843 0.0000 0.0000 -171429.2849 0.0000 -171429.2849 -171429.2849 0.0000 15345.0680 -26761.3607 534946.2959 15345.0680 -26761.3607
ENERGY: 520 156.3993 656.9642 2884.1434 0.0000 -195241.5274 19674.5850 159.3453 0.0000 0.0000 -171710.0902 0.0000 -171710.0902 -171710.0902 0.0000 15268.7282 -5298.6989 534946.2959 15268.7282 -5298.6989
ENERGY: 540 218.2758 708.8746 2881.6152 0.0000 -195836.8614 19861.6538 194.3710 0.0000 0.0000 -171972.0710 0.0000 -171972.0710 -171972.0710 0.0000 15220.2565 -5402.4003 534946.2959 15220.2565 -5402.4003
ENERGY: 560 305.1303 730.1281 2882.2467 0.0000 -196461.0682 20105.0039 218.5110 0.0000 0.0000 -172220.0482 0.0000 -172220.0482 -172220.0482 0.0000 15285.0944 -5418.3907 534946.2959 15285.0944 -5418.3907
ENERGY: 580 167.1024 677.2287 2871.7257 0.0000 -196719.4753 20172.9506 207.0488 0.0000 0.0000 -172623.4192 0.0000 -172623.4192 -172623.4192 0.0000 15381.6014 -5355.1333 534946.2959 15381.6014 -5355.1333
ENERGY: 600 145.6374 660.3434 2888.2156 0.0000 -197230.1330 20439.0963 196.1193 0.0000 0.0000 -172900.7210 0.0000 -172900.7210 -172900.7210 0.0000 15630.8990 -5170.5748 534946.2959 15630.8990 -5170.5748
TCL: Setting parameter constraintScaling to 0.15625
TCL: Minimizing for 100 steps
ETITLE: TS BOND ANGLE DIHED IMPRP ELECT VDW BOUNDARY MISC KINETIC TOTAL TEMP POTENTIAL TOTAL3 TEMPAVG PRESSURE GPRESSURE VOLUME PRESSAVG GPRESSAVG
ENERGY: 600 145.6374 660.3434 2888.2156 0.0000 -197230.1330 20439.0963 98.0597 0.0000 0.0000 -172998.7807 0.0000 -172998.7807 -172998.7807 0.0000 15746.9668 -26889.1226 534946.2959 15746.9668 -26889.1226
ENERGY: 620 154.1208 640.1529 2863.4324 0.0000 -197542.4938 20484.4595 109.9200 0.0000 0.0000 -173290.4082 0.0000 -173290.4082 -173290.4082 0.0000 15682.2899 -5153.7448 534946.2959 15682.2899 -5153.7448
ENERGY: 640 238.8513 724.0690 2863.4773 0.0000 -198153.3198 20693.8967 124.0776 0.0000 0.0000 -173508.9479 0.0000 -173508.9479 -173508.9479 0.0000 15775.9074 -5159.3757 534946.2959 15775.9074 -5159.3757
ENERGY: 660 169.6115 667.1616 2860.3079 0.0000 -198262.8911 20737.3838 124.2858 0.0000 0.0000 -173704.1406 0.0000 -173704.1406 -173704.1406 0.0000 15745.4467 -5159.1715 534946.2959 15745.4467 -5159.1715
ENERGY: 680 180.4121 667.2402 2866.4415 0.0000 -199012.9538 21053.0751 128.4818 0.0000 0.0000 -174117.3031 0.0000 -174117.3031 -174117.3031 0.0000 15968.1347 -5036.0738 534946.2959 15968.1347 -5036.0738
ENERGY: 700 156.8776 657.1252 2854.5463 0.0000 -199841.4329 21372.4249 141.7153 0.0000 0.0000 -174658.7436 0.0000 -174658.7436 -174658.7436 0.0000 16090.8489 -4999.4326 534946.2959 16090.8489 -4999.4326
TCL: Setting parameter constraintScaling to 0.078125
TCL: Minimizing for 100 steps
ETITLE: TS BOND ANGLE DIHED IMPRP ELECT VDW BOUNDARY MISC KINETIC TOTAL TEMP POTENTIAL TOTAL3 TEMPAVG PRESSURE GPRESSURE VOLUME PRESSAVG GPRESSAVG
ENERGY: 700 156.8776 657.1252 2854.5463 0.0000 -199841.4329 21372.4249 70.8577 0.0000 0.0000 -174729.6012 0.0000 -174729.6012 -174729.6012 0.0000 16162.4040 -27094.2503 534946.2959 16162.4040 -27094.2503
ENERGY: 720 167.8902 650.7357 2844.1470 0.0000 -200096.2504 21439.9785 76.0509 0.0000 0.0000 -174917.4480 0.0000 -174917.4480 -174917.4480 0.0000 16147.5698 -4978.6105 534946.2959 16147.5698 -4978.6105
ENERGY: 740 229.4175 703.1695 2844.8192 0.0000 -200750.8759 21677.1013 84.1799 0.0000 0.0000 -175212.1885 0.0000 -175212.1885 -175212.1885 0.0000 16222.4054 -4969.3259 534946.2959 16222.4054 -4969.3259
ENERGY: 760 168.4933 658.6385 2838.9793 0.0000 -200819.7305 21697.1901 83.6049 0.0000 0.0000 -175372.8244 0.0000 -175372.8244 -175372.8244 0.0000 16263.8735 -4950.5598 534946.2959 16263.8735 -4950.5598
ENERGY: 780 166.9756 650.7850 2847.1206 0.0000 -201216.0441 21869.1893 83.5303 0.0000 0.0000 -175598.4433 0.0000 -175598.4433 -175598.4433 0.0000 16388.1250 -4863.1763 534946.2959 16388.1250 -4863.1763
ENERGY: 800 155.3627 654.8222 2847.1712 0.0000 -201723.9938 22080.4104 87.3207 0.0000 0.0000 -175898.9066 0.0000 -175898.9066 -175898.9066 0.0000 16534.1528 -4794.1888 534946.2959 16534.1528 -4794.1888
TCL: Setting parameter constraintScaling to 0.0390625
TCL: Minimizing for 100 steps
ETITLE: TS BOND ANGLE DIHED IMPRP ELECT VDW BOUNDARY MISC KINETIC TOTAL TEMP POTENTIAL TOTAL3 TEMPAVG PRESSURE GPRESSURE VOLUME PRESSAVG GPRESSAVG
ENERGY: 800 155.3627 654.8222 2847.1712 0.0000 -201723.9938 22080.4104 43.6603 0.0000 0.0000 -175942.5669 0.0000 -175942.5669 -175942.5669 0.0000 16574.9049 -27136.2300 534946.2959 16574.9049 -27136.2300
ENERGY: 820 169.1802 650.3824 2830.2466 0.0000 -201987.7990 22149.5526 46.7377 0.0000 0.0000 -176141.6995 0.0000 -176141.6995 -176141.6995 0.0000 16553.4472 -4804.3795 534946.2959 16553.4472 -4804.3795
ENERGY: 840 179.0900 653.3877 2827.6480 0.0000 -202172.3860 22225.5846 48.0148 0.0000 0.0000 -176238.6609 0.0000 -176238.6609 -176238.6609 0.0000 16500.9586 -4850.7688 534946.2959 16500.9586 -4850.7688
ENERGY: 860 158.2421 663.5310 2828.7131 0.0000 -202396.0281 22308.9691 49.2093 0.0000 0.0000 -176387.3635 0.0000 -176387.3635 -176387.3635 0.0000 16636.6942 -4777.0740 534946.2959 16636.6942 -4777.0740
ENERGY: 880 184.0009 656.2965 2829.7562 0.0000 -202643.6838 22416.2040 50.1302 0.0000 0.0000 -176507.2960 0.0000 -176507.2960 -176507.2960 0.0000 16613.4531 -4793.6201 534946.2959 16613.4531 -4793.6201
ENERGY: 900 159.9115 650.7222 2828.4765 0.0000 -203120.3940 22619.0237 51.7500 0.0000 0.0000 -176810.5101 0.0000 -176810.5101 -176810.5101 0.0000 16788.8305 -4695.4322 534946.2959 16788.8305 -4695.4322
TCL: Setting parameter constraintScaling to 0.01953125
TCL: Minimizing for 100 steps
ETITLE: TS BOND ANGLE DIHED IMPRP ELECT VDW BOUNDARY MISC KINETIC TOTAL TEMP POTENTIAL TOTAL3 TEMPAVG PRESSURE GPRESSURE VOLUME PRESSAVG GPRESSAVG
ENERGY: 900 159.9115 650.7222 2828.4765 0.0000 -203120.3940 22619.0237 25.8750 0.0000 0.0000 -176836.3851 0.0000 -176836.3851 -176836.3851 0.0000 16811.3949 -27227.8205 534946.2959 16811.3949 -27227.8205
ENERGY: 920 171.0625 654.2424 2820.9781 0.0000 -203323.7696 22692.3027 26.9302 0.0000 0.0000 -176958.2538 0.0000 -176958.2538 -176958.2538 0.0000 16826.0201 -4683.8810 534946.2959 16826.0201 -4683.8810
ENERGY: 940 236.4627 665.9879 2822.6048 0.0000 -203531.6157 22779.8808 27.6482 0.0000 0.0000 -176999.0312 0.0000 -176999.0312 -176999.0312 0.0000 16837.5204 -4680.1624 534946.2959 16837.5204 -4680.1624
ENERGY: 960 167.7373 652.6591 2818.7051 0.0000 -203736.2753 22865.9469 28.2348 0.0000 0.0000 -177202.9921 0.0000 -177202.9921 -177202.9921 0.0000 16884.7968 -4661.0136 534946.2959 16884.7968 -4661.0136
ENERGY: 980 168.5549 673.9260 2818.4176 0.0000 -203917.7430 22944.5332 28.6206 0.0000 0.0000 -177283.6906 0.0000 -177283.6906 -177283.6906 0.0000 16962.9232 -4625.2924 534946.2959 16962.9232 -4625.2924
ENERGY: 1000 205.6408 688.9436 2822.7732 0.0000 -204438.8019 23182.8145 29.8155 0.0000 0.0000 -177508.8143 0.0000 -177508.8143 -177508.8143 0.0000 17082.7176 -4545.9490 534946.2959 17082.7176 -4545.9490
TCL: Setting parameter constraintScaling to 0
TCL: Minimizing for 5000 steps
ETITLE: TS BOND ANGLE DIHED IMPRP ELECT VDW BOUNDARY MISC KINETIC TOTAL TEMP POTENTIAL TOTAL3 TEMPAVG PRESSURE GPRESSURE VOLUME PRESSAVG GPRESSAVG
ENERGY: 1000 205.6408 688.9436 2822.7732 0.0000 -204438.8019 23182.8145 0.0000 0.0000 0.0000 -177538.6298 0.0000 -177538.6298 -177538.6298 0.0000 17107.4003 -27249.1014 534946.2959 17107.4003 -27249.1014
ENERGY: 2000 169.3480 661.2557 2801.4614 0.0000 -214307.3343 27552.7619 0.0000 0.0000 0.0000 -183122.5073 0.0000 -183122.5073 -183122.5073 0.0000 19407.3961 -3342.1876 534946.2959 19407.3961 -3342.1876
ENERGY: 3000 166.9818 665.1610 2797.4013 0.0000 -217365.3906 28851.3625 0.0000 0.0000 0.0000 -184884.4840 0.0000 -184884.4840 -184884.4840 0.0000 20097.6488 -2971.1002 534946.2959 20097.6488 -2971.1002
ENERGY: 4000 165.8078 664.8163 2792.8003 0.0000 -218668.2917 29396.5643 0.0000 0.0000 0.0000 -185648.3030 0.0000 -185648.3030 -185648.3030 0.0000 20387.3991 -2815.0689 534946.2959 20387.3991 -2815.0689
ENERGY: 5000 166.1768 664.2082 2789.6479 0.0000 -219415.7408 29675.0504 0.0000 0.0000 0.0000 -186120.6575 0.0000 -186120.6575 -186120.6575 0.0000 20523.0265 -2755.9193 534946.2959 20523.0265 -2755.9193
ENERGY: 6000 166.2934 663.3623 2790.4130 0.0000 -219966.7342 29904.5423 0.0000 0.0000 0.0000 -186442.1231 0.0000 -186442.1231 -186442.1231 0.0000 20641.5890 -2691.0735 534946.2959 20641.5890 -2691.0735
