Info: SIMULATION PARAMETERS:
Info: TIMESTEP               2
Info: NUMBER OF STEPS        0
Info: STEPS PER CYCLE        10
Info: PERIODIC CELL BASIS 1  72.449 0 0
Info: PERIODIC CELL BASIS 2  0 93.247 0
Info: PERIODIC CELL BASIS 3  0 0 79.185
Info: PERIODIC CELL CENTER   -0.248 -0.156 -0.047
Info: WRAPPING WATERS AROUND PERIODIC BOUNDARIES ON OUTPUT.
Info: WRAPPING ALL CLUSTERS AROUND PERIODIC BOUNDARIES ON OUTPUT.
Info: FIRST LDB TIMESTEP     50
Info: LAST LDB TIMESTEP     -1
Info: HOM BACKGROUND SCALING 1
Info: PME BACKGROUND SCALING 1
Info: MIN ATOMS PER PATCH    40
Info: INITIAL TEMPERATURE    0
Info: CENTER OF MASS MOVING INITIALLY? NO
Info: DIELECTRIC             1
Info: EXCLUDE                SCALED ONE-FOUR
Info: 1-4 ELECTROSTATICS SCALED BY 0.833333
Info: MODIFIED 1-4 VDW PARAMETERS WILL BE USED
Info: NO DCD TRAJECTORY OUTPUT
Info: NO EXTENDED SYSTEM TRAJECTORY OUTPUT
Info: NO VELOCITY DCD OUTPUT
Info: NO FORCE DCD OUTPUT
Info: OUTPUT FILENAME        ../replicas/rep49/equilibration/eq0
Info: NO RESTART FILE
Info: SWITCHING ACTIVE
Info: SWITCHING ON           10
Info: SWITCHING OFF          12
Info: PAIRLIST DISTANCE      13.5
Info: PAIRLIST SHRINK RATE   0.01
Info: PAIRLIST GROW RATE     0.01
Info: PAIRLIST TRIGGER       0.3
Info: PAIRLISTS PER CYCLE    2
Info: PAIRLISTS ENABLED
Info: MARGIN                 0
Info: HYDROGEN GROUP CUTOFF  2.5
Info: PATCH DIMENSION        16
Info: ENERGY OUTPUT STEPS    500
Info: CROSSTERM ENERGY INCLUDED IN DIHEDRAL
Info: TIMING OUTPUT STEPS    5000
Info: PRESSURE OUTPUT STEPS  500
Info: HARMONIC CONSTRAINTS ACTIVE
Info: HARMONIC CONS EXP      2
Info: HARMONIC CONS SCALING  10
Info: CONJUGATE GRADIENT MINIMIZATION ACTIVE
Info: LINE MINIMIZATION GOAL = 0.001
Info: BABY STEP SIZE = 0.01
Info: TINY STEP SIZE = 1e-06
Info: PARTICLE MESH EWALD (PME) ACTIVE
Info: PME TOLERANCE               1e-06
Info: PME EWALD COEFFICIENT       0.257952
Info: PME INTERPOLATION ORDER     4
Info: PME GRID DIMENSIONS         80 96 80
Info: PME MAXIMUM GRID SPACING    1
Info: FULL ELECTROSTATIC EVALUATION FREQUENCY      2
Info: USING VERLET I (r-RESPA) MTS SCHEME.
Info: C1 SPLITTING OF LONG RANGE ELECTROSTATICS
Info: PLACING ATOMS IN PATCHES BY HYDROGEN GROUPS
Info: RIGID BONDS TO HYDROGEN : ALL
Info:         ERROR TOLERANCE : 1e-05
Info:          MAX ITERATIONS : 100
Info: RIGID WATER USING SETTLE ALGORITHM
Info: RANDOM NUMBER SEED     1503713880
Info: USE HYDROGEN BONDS?    NO
Info: Using AMBER format force field!
Info: AMBER PARM FILE        ../build/complex.top
Info: COORDINATE PDB         ../build/complex.pdb
Info: Exclusions in PARM file will be ignored!
Info: SCNB (VDW SCALING)     2
Info: USING ARITHMETIC MEAN TO COMBINE L-J SIGMA PARAMETERS
Info: SUMMARY OF PARAMETERS:
Info: 71 BONDS
Info: 145 ANGLES
Info: 76 DIHEDRAL
Info: 0 IMPROPER
Info: 0 CROSSTERM
Info: 0 VDW
Info: 190 VDW_PAIRS
Info: 0 NBTHOLE_PAIRS
Info: STRUCTURE SUMMARY:
Info: 49394 ATOMS
Info: 49448 BONDS
Info: 8698 ANGLES
Info: 18780 DIHEDRALS
Info: 0 IMPROPERS
Info: 0 CROSSTERMS
Info: 0 EXCLUSIONS
Info: 2336 CONSTRAINTS
Info: 47058 RIGID BONDS
Info: 101124 DEGREES OF FREEDOM
Info: 17225 HYDROGEN GROUPS
Info: 4 ATOMS IN LARGEST HYDROGEN GROUP
Info: 17225 MIGRATION GROUPS
Info: 4 ATOMS IN LARGEST MIGRATION GROUP
Info: TOTAL MASS = 301478 amu
Info: TOTAL CHARGE = 1.00115e-05 e
Info: MASS DENSITY = 0.935846 g/cm^3
Info: ATOM DENSITY = 0.0923345 atoms/A^3
Info: ADDED 70656 IMPLICIT EXCLUSIONS
Info: NONBONDED TABLE R-SQUARED SPACING: 0.0625
Info: NONBONDED TABLE SIZE: 769 POINTS
Info: REMOVING COM VELOCITY 0 0 0
TCL: Minimizing for 100 steps
ETITLE: TS BOND ANGLE DIHED IMPRP ELECT VDW BOUNDARY MISC KINETIC TOTAL TEMP POTENTIAL TOTAL3 TEMPAVG PRESSURE GPRESSURE VOLUME PRESSAVG GPRESSAVG
ENERGY: 0 155.4176 1012.2698 2855.7272 0.0000 -154496.7911 207729.2052 0.0468 0.0000 0.0000 57255.8755 0.0000 57255.8755 57255.8755 0.0000 116350.2532 86546.1670 534946.2959 116350.2532 86546.1670
ENERGY: 20 304.7548 935.7911 2893.4663 0.0000 -158672.9405 17936.6595 143.9454 0.0000 0.0000 -136458.3233 0.0000 -136458.3233 -136458.3233 0.0000 16523.9388 -239.4557 534946.2959 16523.9388 -239.4557
ENERGY: 40 198.7455 799.5729 2896.9273 0.0000 -162811.4540 16417.9534 221.3030 0.0000 0.0000 -142276.9518 0.0000 -142276.9518 -142276.9518 0.0000 15011.2700 -2135.4702 534946.2959 15011.2700 -2135.4702
ENERGY: 60 130.5282 715.3440 2898.2166 0.0000 -167496.1593 15446.7536 315.2797 0.0000 0.0000 -147990.0373 0.0000 -147990.0373 -147990.0373 0.0000 13793.8832 -3799.3993 534946.2959 13793.8832 -3799.3993
ENERGY: 80 431.2729 765.6307 2904.3787 0.0000 -169937.5330 15121.1520 372.0123 0.0000 0.0000 -150343.0864 0.0000 -150343.0864 -150343.0864 0.0000 13270.3298 -4577.2463 534946.2959 13270.3298 -4577.2463
ENERGY: 100 129.7135 708.0648 2904.2781 0.0000 -171050.0672 15018.6535 384.2001 0.0000 0.0000 -151905.1572 0.0000 -151905.1572 -151905.1572 0.0000 13092.9127 -4843.6316 534946.2959 13092.9127 -4843.6316
TCL: Setting parameter constraintScaling to 5.0
TCL: Minimizing for 100 steps
ETITLE: TS BOND ANGLE DIHED IMPRP ELECT VDW BOUNDARY MISC KINETIC TOTAL TEMP POTENTIAL TOTAL3 TEMPAVG PRESSURE GPRESSURE VOLUME PRESSAVG GPRESSAVG
ENERGY: 100 129.7135 708.0648 2904.2781 0.0000 -171050.0672 15018.6535 192.1000 0.0000 0.0000 -152097.2573 0.0000 -152097.2573 -152097.2573 0.0000 13703.5079 -22944.4548 534946.2959 13703.5079 -22944.4548
ENERGY: 120 118.6820 680.2876 2909.9066 0.0000 -172396.3126 14830.1206 259.9549 0.0000 0.0000 -153597.3609 0.0000 -153597.3609 -153597.3609 0.0000 13320.9476 -4756.3068 534946.2959 13320.9476 -4756.3068
ENERGY: 140 109.1484 671.1471 2912.0863 0.0000 -174830.2443 14716.1441 337.7302 0.0000 0.0000 -156083.9883 0.0000 -156083.9883 -156083.9883 0.0000 12908.9614 -5423.1422 534946.2959 12908.9614 -5423.1422
ENERGY: 160 303.0006 691.2584 2915.1769 0.0000 -176082.5786 14739.2641 369.8384 0.0000 0.0000 -157064.0401 0.0000 -157064.0401 -157064.0401 0.0000 12780.5524 -5675.9314 534946.2959 12780.5524 -5675.9314
ENERGY: 180 182.1874 640.7527 2917.0632 0.0000 -177289.4036 14805.0565 391.8971 0.0000 0.0000 -158352.4466 0.0000 -158352.4466 -158352.4466 0.0000 12715.3610 -5865.0970 534946.2959 12715.3610 -5865.0970
ENERGY: 200 200.8286 672.8129 2923.8872 0.0000 -179263.0068 15029.6715 438.8833 0.0000 0.0000 -159996.9234 0.0000 -159996.9234 -159996.9234 0.0000 12652.1211 -6141.9023 534946.2959 12652.1211 -6141.9023
TCL: Setting parameter constraintScaling to 2.5
TCL: Minimizing for 100 steps
ETITLE: TS BOND ANGLE DIHED IMPRP ELECT VDW BOUNDARY MISC KINETIC TOTAL TEMP POTENTIAL TOTAL3 TEMPAVG PRESSURE GPRESSURE VOLUME PRESSAVG GPRESSAVG
ENERGY: 200 200.8286 672.8129 2923.8872 0.0000 -179263.0068 15029.6715 219.4416 0.0000 0.0000 -160216.3650 0.0000 -160216.3650 -160216.3650 0.0000 13194.5890 -25226.9275 534946.2959 13194.5890 -25226.9275
ENERGY: 220 129.4357 648.4178 2922.2167 0.0000 -180050.4785 15072.5915 269.1051 0.0000 0.0000 -161008.7116 0.0000 -161008.7116 -161008.7116 0.0000 13073.4275 -5815.6476 534946.2959 13073.4275 -5815.6476
ENERGY: 240 148.6909 630.0418 2922.2767 0.0000 -182011.1537 15361.3004 366.0677 0.0000 0.0000 -162582.7763 0.0000 -162582.7763 -162582.7763 0.0000 12907.0220 -6168.2965 534946.2959 12907.0220 -6168.2965
ENERGY: 260 225.6663 662.3363 2925.6696 0.0000 -183827.6151 15792.1601 453.4632 0.0000 0.0000 -163768.3195 0.0000 -163768.3195 -163768.3195 0.0000 12946.2425 -6340.9028 534946.2959 12946.2425 -6340.9028
ENERGY: 280 217.9117 720.3553 2924.1439 0.0000 -185513.9658 16364.2074 496.7270 0.0000 0.0000 -164790.6207 0.0000 -164790.6207 -164790.6207 0.0000 13122.3272 -6362.3249 534946.2959 13122.3272 -6362.3249
ENERGY: 300 147.0292 676.6119 2921.4382 0.0000 -186144.0955 16559.0873 447.1809 0.0000 0.0000 -165392.7479 0.0000 -165392.7479 -165392.7479 0.0000 13324.0746 -6215.6246 534946.2959 13324.0746 -6215.6246
TCL: Setting parameter constraintScaling to 1.25
TCL: Minimizing for 100 steps
ETITLE: TS BOND ANGLE DIHED IMPRP ELECT VDW BOUNDARY MISC KINETIC TOTAL TEMP POTENTIAL TOTAL3 TEMPAVG PRESSURE GPRESSURE VOLUME PRESSAVG GPRESSAVG
ENERGY: 300 147.0292 676.6119 2921.4382 0.0000 -186144.0955 16559.0873 223.5904 0.0000 0.0000 -165616.3384 0.0000 -165616.3384 -165616.3384 0.0000 13756.8674 -26249.7139 534946.2959 13756.8674 -26249.7139
ENERGY: 320 176.7438 662.8116 2927.6243 0.0000 -186639.0330 16622.5242 275.4272 0.0000 0.0000 -165973.9018 0.0000 -165973.9018 -165973.9018 0.0000 13632.3959 -5953.9084 534946.2959 13632.3959 -5953.9084
ENERGY: 340 134.0482 639.2818 2903.5759 0.0000 -187485.5420 16879.9587 301.6873 0.0000 0.0000 -166626.9900 0.0000 -166626.9900 -166626.9900 0.0000 13724.8708 -5965.4205 534946.2959 13724.8708 -5965.4205
ENERGY: 360 151.4535 640.2335 2900.9073 0.0000 -188945.8923 17341.7055 363.4666 0.0000 0.0000 -167548.1259 0.0000 -167548.1259 -167548.1259 0.0000 13853.6578 -6016.0246 534946.2959 13853.6578 -6016.0246
ENERGY: 380 154.0009 673.7010 2920.2178 0.0000 -189451.3675 17493.0520 383.9828 0.0000 0.0000 -167826.4130 0.0000 -167826.4130 -167826.4130 0.0000 13831.5270 -6077.3556 534946.2959 13831.5270 -6077.3556
ENERGY: 400 169.3467 631.0074 2898.9899 0.0000 -190848.6165 18065.8336 362.0280 0.0000 0.0000 -168721.4109 0.0000 -168721.4109 -168721.4109 0.0000 14187.9020 -5882.4047 534946.2959 14187.9020 -5882.4047
TCL: Setting parameter constraintScaling to 0.625
TCL: Minimizing for 100 steps
ETITLE: TS BOND ANGLE DIHED IMPRP ELECT VDW BOUNDARY MISC KINETIC TOTAL TEMP POTENTIAL TOTAL3 TEMPAVG PRESSURE GPRESSURE VOLUME PRESSAVG GPRESSAVG
ENERGY: 400 169.3467 631.0074 2898.9899 0.0000 -190848.6165 18065.8336 181.0140 0.0000 0.0000 -168902.4249 0.0000 -168902.4249 -168902.4249 0.0000 14475.4415 -26658.5813 534946.2959 14475.4415 -26658.5813
ENERGY: 420 151.3950 666.1438 2906.3556 0.0000 -191270.8858 18144.6009 218.8922 0.0000 0.0000 -169183.4984 0.0000 -169183.4984 -169183.4984 0.0000 14440.0819 -5691.2451 534946.2959 14440.0819 -5691.2451
ENERGY: 440 147.3303 678.3540 2883.9963 0.0000 -192441.5952 18567.0252 265.7133 0.0000 0.0000 -169899.1762 0.0000 -169899.1762 -169899.1762 0.0000 14590.8385 -5678.1436 534946.2959 14590.8385 -5678.1436
ENERGY: 460 265.4191 711.5214 2882.8266 0.0000 -193308.0561 18883.8554 298.6903 0.0000 0.0000 -170265.7433 0.0000 -170265.7433 -170265.7433 0.0000 14691.1873 -5690.2086 534946.2959 14691.1873 -5690.2086
ENERGY: 480 173.3286 662.1829 2887.7078 0.0000 -193694.6190 19038.4333 295.0649 0.0000 0.0000 -170637.9014 0.0000 -170637.9014 -170637.9014 0.0000 14711.6354 -5667.0961 534946.2959 14711.6354 -5667.0961
ENERGY: 500 136.7320 653.6500 2901.9337 0.0000 -195465.1945 19844.8774 288.2935 0.0000 0.0000 -171639.7080 0.0000 -171639.7080 -171639.7080 0.0000 15242.9381 -5350.7266 534946.2959 15242.9381 -5350.7266
TCL: Setting parameter constraintScaling to 0.3125
TCL: Minimizing for 100 steps
ETITLE: TS BOND ANGLE DIHED IMPRP ELECT VDW BOUNDARY MISC KINETIC TOTAL TEMP POTENTIAL TOTAL3 TEMPAVG PRESSURE GPRESSURE VOLUME PRESSAVG GPRESSAVG
ENERGY: 500 136.7320 653.6500 2901.9337 0.0000 -195465.1946 19844.8774 144.1467 0.0000 0.0000 -171783.8548 0.0000 -171783.8548 -171783.8548 0.0000 15436.1291 -26786.0738 534946.2959 15436.1291 -26786.0738
ENERGY: 520 207.8439 682.8365 2880.0254 0.0000 -195984.6976 19935.4252 182.9211 0.0000 0.0000 -172095.6456 0.0000 -172095.6456 -172095.6456 0.0000 15275.1718 -5365.6718 534946.2959 15275.1718 -5365.6718
ENERGY: 540 291.9029 747.4364 2884.3408 0.0000 -197000.0229 20309.0546 232.6338 0.0000 0.0000 -172534.6544 0.0000 -172534.6544 -172534.6544 0.0000 15366.6887 -5384.6516 534946.2959 15366.6887 -5384.6516
ENERGY: 560 168.2396 671.3561 2872.1176 0.0000 -197279.2938 20385.7765 223.9478 0.0000 0.0000 -172957.8562 0.0000 -172957.8562 -172957.8562 0.0000 15440.2240 -5354.3925 534946.2959 15440.2240 -5354.3925
ENERGY: 580 185.1982 656.2295 2877.1131 0.0000 -197873.6966 20683.6251 203.2022 0.0000 0.0000 -173268.3285 0.0000 -173268.3285 -173268.3285 0.0000 15739.6680 -5137.8022 534946.2959 15739.6680 -5137.8022
ENERGY: 600 163.1647 644.3266 2871.1334 0.0000 -198680.1643 20992.2121 218.5474 0.0000 0.0000 -173790.7801 0.0000 -173790.7801 -173790.7801 0.0000 15877.7100 -5096.6236 534946.2959 15877.7100 -5096.6236
TCL: Setting parameter constraintScaling to 0.15625
TCL: Minimizing for 100 steps
ETITLE: TS BOND ANGLE DIHED IMPRP ELECT VDW BOUNDARY MISC KINETIC TOTAL TEMP POTENTIAL TOTAL3 TEMPAVG PRESSURE GPRESSURE VOLUME PRESSAVG GPRESSAVG
ENERGY: 600 163.1647 644.3266 2871.1334 0.0000 -198680.1643 20992.2121 109.2737 0.0000 0.0000 -173900.0538 0.0000 -173900.0538 -173900.0538 0.0000 16000.9174 -26982.6602 534946.2959 16000.9174 -26982.6602
ENERGY: 620 184.0474 662.5401 2855.3934 0.0000 -198990.1702 21047.2085 122.8833 0.0000 0.0000 -174118.0974 0.0000 -174118.0974 -174118.0974 0.0000 15948.5215 -5056.7996 534946.2959 15948.5215 -5056.7996
ENERGY: 640 164.6786 667.0013 2853.5306 0.0000 -199444.7970 21204.0400 138.0649 0.0000 0.0000 -174417.4816 0.0000 -174417.4816 -174417.4816 0.0000 15952.8780 -5094.2629 534946.2959 15952.8780 -5094.2629
ENERGY: 660 163.4061 644.4542 2857.9690 0.0000 -200120.4716 21476.4074 136.1285 0.0000 0.0000 -174842.1064 0.0000 -174842.1064 -174842.1064 0.0000 16200.1027 -4941.9622 534946.2959 16200.1027 -4941.9622
ENERGY: 680 362.9734 724.3478 2869.3004 0.0000 -201714.3144 22198.8398 159.9352 0.0000 0.0000 -175398.9178 0.0000 -175398.9178 -175398.9178 0.0000 16585.5148 -4766.1255 534946.2959 16585.5148 -4766.1255
ENERGY: 700 184.8660 666.1628 2840.2679 0.0000 -201667.8710 22083.3863 165.7511 0.0000 0.0000 -175727.4369 0.0000 -175727.4369 -175727.4369 0.0000 16414.7292 -4892.9509 534946.2959 16414.7292 -4892.9509
TCL: Setting parameter constraintScaling to 0.078125
TCL: Minimizing for 100 steps
ETITLE: TS BOND ANGLE DIHED IMPRP ELECT VDW BOUNDARY MISC KINETIC TOTAL TEMP POTENTIAL TOTAL3 TEMPAVG PRESSURE GPRESSURE VOLUME PRESSAVG GPRESSAVG
ENERGY: 700 184.8660 666.1628 2840.2679 0.0000 -201667.8710 22083.3863 82.8756 0.0000 0.0000 -175810.3125 0.0000 -175810.3125 -175810.3125 0.0000 16491.9018 -27202.8349 534946.2959 16491.9018 -27202.8349
ENERGY: 720 152.3838 645.0761 2835.0457 0.0000 -201723.8441 22098.1209 83.4730 0.0000 0.0000 -175909.7447 0.0000 -175909.7447 -175909.7447 0.0000 16513.8770 -4813.0779 534946.2959 16513.8770 -4813.0779
ENERGY: 740 186.3333 656.0480 2831.9028 0.0000 -202200.7884 22269.2416 90.4867 0.0000 0.0000 -176166.7759 0.0000 -176166.7759 -176166.7759 0.0000 16569.3049 -4810.2067 534946.2959 16569.3049 -4810.2067
ENERGY: 760 174.3736 655.7479 2831.6551 0.0000 -202395.4737 22342.5176 91.1551 0.0000 0.0000 -176300.0245 0.0000 -176300.0245 -176300.0245 0.0000 16611.4538 -4792.9513 534946.2959 16611.4538 -4792.9513
ENERGY: 780 170.4045 652.3434 2832.3204 0.0000 -202808.6743 22512.6962 93.2731 0.0000 0.0000 -176547.6366 0.0000 -176547.6366 -176547.6366 0.0000 16701.8246 -4743.9642 534946.2959 16701.8246 -4743.9642
ENERGY: 800 157.3331 645.3703 2827.7890 0.0000 -203248.1540 22695.5440 97.5253 0.0000 0.0000 -176824.5924 0.0000 -176824.5924 -176824.5924 0.0000 16792.2366 -4706.8857 534946.2959 16792.2366 -4706.8857
TCL: Setting parameter constraintScaling to 0.0390625
TCL: Minimizing for 100 steps
ETITLE: TS BOND ANGLE DIHED IMPRP ELECT VDW BOUNDARY MISC KINETIC TOTAL TEMP POTENTIAL TOTAL3 TEMPAVG PRESSURE GPRESSURE VOLUME PRESSAVG GPRESSAVG
ENERGY: 800 157.3331 645.3703 2827.7890 0.0000 -203248.1540 22695.5440 48.7627 0.0000 0.0000 -176873.3550 0.0000 -176873.3550 -176873.3550 0.0000 16834.7046 -27236.7501 534946.2959 16834.7046 -27236.7501
ENERGY: 820 164.6554 648.6219 2823.0543 0.0000 -203435.3276 22765.0116 50.5838 0.0000 0.0000 -176983.4006 0.0000 -176983.4006 -176983.4006 0.0000 16861.2417 -4660.2765 534946.2959 16861.2417 -4660.2765
ENERGY: 840 175.0107 668.8500 2822.2914 0.0000 -203738.3249 22887.4796 52.6355 0.0000 0.0000 -177132.0577 0.0000 -177132.0577 -177132.0577 0.0000 16918.1001 -4650.0871 534946.2959 16918.1001 -4650.0871
ENERGY: 860 232.9835 665.3454 2824.5599 0.0000 -204130.4659 23057.4105 54.4577 0.0000 0.0000 -177295.7089 0.0000 -177295.7089 -177295.7089 0.0000 16972.7708 -4616.8146 534946.2959 16972.7708 -4616.8146
ENERGY: 880 180.2552 662.2564 2821.1986 0.0000 -204619.3884 23277.1438 56.4674 0.0000 0.0000 -177622.0670 0.0000 -177622.0670 -177622.0670 0.0000 17170.1228 -4508.3824 534946.2959 17170.1228 -4508.3824
ENERGY: 900 158.2988 648.1093 2818.5347 0.0000 -205269.1132 23615.7315 60.4984 0.0000 0.0000 -177967.9405 0.0000 -177967.9405 -177967.9405 0.0000 17294.6587 -4439.5722 534946.2959 17294.6587 -4439.5722
TCL: Setting parameter constraintScaling to 0.01953125
TCL: Minimizing for 100 steps
ETITLE: TS BOND ANGLE DIHED IMPRP ELECT VDW BOUNDARY MISC KINETIC TOTAL TEMP POTENTIAL TOTAL3 TEMPAVG PRESSURE GPRESSURE VOLUME PRESSAVG GPRESSAVG
ENERGY: 900 158.2988 648.1093 2818.5347 0.0000 -205269.1132 23615.7315 30.2492 0.0000 0.0000 -177998.1897 0.0000 -177998.1897 -177998.1897 0.0000 17319.1996 -27239.3448 534946.2959 17319.1996 -27239.3448
ENERGY: 920 167.3572 656.9875 2813.0821 0.0000 -205430.5032 23659.8664 31.4056 0.0000 0.0000 -178101.8044 0.0000 -178101.8044 -178101.8044 0.0000 17315.1104 -4435.4457 534946.2959 17315.1104 -4435.4457
ENERGY: 940 166.5440 660.8269 2810.7810 0.0000 -205638.5271 23749.0721 32.2421 0.0000 0.0000 -178219.0609 0.0000 -178219.0609 -178219.0609 0.0000 17360.6478 -4420.1637 534946.2959 17360.6478 -4420.1637
ENERGY: 960 165.3821 657.0648 2809.4999 0.0000 -205733.9862 23781.0051 32.5949 0.0000 0.0000 -178288.4396 0.0000 -178288.4396 -178288.4396 0.0000 17387.5247 -4401.8456 534946.2959 17387.5247 -4401.8456
ENERGY: 980 173.1626 660.8590 2810.8486 0.0000 -205918.1495 23852.3988 32.9135 0.0000 0.0000 -178387.9670 0.0000 -178387.9670 -178387.9670 0.0000 17414.9259 -4396.2973 534946.2959 17414.9259 -4396.2973
ENERGY: 1000 181.6990 654.7619 2813.3678 0.0000 -206294.0810 24025.7133 33.8156 0.0000 0.0000 -178584.7235 0.0000 -178584.7235 -178584.7235 0.0000 17522.7095 -4327.4720 534946.2959 17522.7095 -4327.4720
TCL: Setting parameter constraintScaling to 0
TCL: Minimizing for 5000 steps
ETITLE: TS BOND ANGLE DIHED IMPRP ELECT VDW BOUNDARY MISC KINETIC TOTAL TEMP POTENTIAL TOTAL3 TEMPAVG PRESSURE GPRESSURE VOLUME PRESSAVG GPRESSAVG
ENERGY: 1000 181.6990 654.7619 2813.3678 0.0000 -206294.0810 24025.7133 0.0000 0.0000 0.0000 -178618.5391 0.0000 -178618.5391 -178618.5391 0.0000 17549.1466 -27253.6870 534946.2959 17549.1466 -27253.6870
ENERGY: 2000 168.9551 663.4439 2805.1659 0.0000 -215153.8257 27985.7241 0.0000 0.0000 0.0000 -183530.5367 0.0000 -183530.5367 -183530.5367 0.0000 19642.6222 -3197.4346 534946.2959 19642.6222 -3197.4346
ENERGY: 3000 168.2840 665.2205 2800.3581 0.0000 -217574.5888 28937.5073 0.0000 0.0000 0.0000 -185003.2189 0.0000 -185003.2189 -185003.2189 0.0000 20147.8128 -2944.5487 534946.2959 20147.8128 -2944.5487
ENERGY: 4000 165.7004 663.2868 2794.8736 0.0000 -218861.5066 29444.3886 0.0000 0.0000 0.0000 -185793.2572 0.0000 -185793.2572 -185793.2572 0.0000 20417.4084 -2812.2286 534946.2959 20417.4084 -2812.2286
ENERGY: 5000 166.2326 663.8064 2794.6912 0.0000 -219517.5358 29718.6942 0.0000 0.0000 0.0000 -186174.1113 0.0000 -186174.1113 -186174.1113 0.0000 20554.5912 -2746.8535 534946.2959 20554.5912 -2746.8535
ENERGY: 6000 166.2196 664.8780 2794.7114 0.0000 -219906.9600 29902.8780 0.0000 0.0000 0.0000 -186378.2730 0.0000 -186378.2730 -186378.2730 0.0000 20652.2331 -2699.5446 534946.2959 20652.2331 -2699.5446
