Info: SIMULATION PARAMETERS:
Info: TIMESTEP               1
Info: NUMBER OF STEPS        0
Info: STEPS PER CYCLE        10
Info: PERIODIC CELL BASIS 1  72.449 0 0
Info: PERIODIC CELL BASIS 2  0 93.247 0
Info: PERIODIC CELL BASIS 3  0 0 79.185
Info: PERIODIC CELL CENTER   -0.248 -0.156 -0.047
Info: WRAPPING WATERS AROUND PERIODIC BOUNDARIES ON OUTPUT.
Info: WRAPPING ALL CLUSTERS AROUND PERIODIC BOUNDARIES ON OUTPUT.
Info: FIRST LDB TIMESTEP     50
Info: LAST LDB TIMESTEP     -1
Info: HOM BACKGROUND SCALING 1
Info: PME BACKGROUND SCALING 1
Info: MIN ATOMS PER PATCH    40
Info: VELOCITY FILE          ../replicas/rep120/equilibration/eq1.vel
Info: CENTER OF MASS MOVING INITIALLY? NO
Info: DIELECTRIC             1
Info: EXCLUDE                SCALED ONE-FOUR
Info: 1-4 ELECTROSTATICS SCALED BY 0.833333
Info: MODIFIED 1-4 VDW PARAMETERS WILL BE USED
Info: DCD FILENAME           ../replicas/rep120/equilibration/eq2.dcd
Info: DCD FREQUENCY          5000
Info: DCD FIRST STEP         5000
Info: DCD FILE WILL CONTAIN UNIT CELL DATA
Info: XST FILENAME           ../replicas/rep120/equilibration/eq2.xst
Info: XST FREQUENCY          5000
Info: NO VELOCITY DCD OUTPUT
Info: NO FORCE DCD OUTPUT
Info: OUTPUT FILENAME        ../replicas/rep120/equilibration/eq2
Info: RESTART FILENAME       ../replicas/rep120/equilibration/eq2.restart
Info: RESTART FREQUENCY      5000
Info: BINARY RESTART FILES WILL BE USED
Info: SWITCHING ACTIVE
Info: SWITCHING ON           10
Info: SWITCHING OFF          12
Info: PAIRLIST DISTANCE      13.5
Info: PAIRLIST SHRINK RATE   0.01
Info: PAIRLIST GROW RATE     0.01
Info: PAIRLIST TRIGGER       0.3
Info: PAIRLISTS PER CYCLE    2
Info: PAIRLISTS ENABLED
Info: MARGIN                 0.48
Info: HYDROGEN GROUP CUTOFF  2.5
Info: PATCH DIMENSION        16.48
Info: ENERGY OUTPUT STEPS    500
Info: CROSSTERM ENERGY INCLUDED IN DIHEDRAL
Info: TIMING OUTPUT STEPS    5000
Info: PRESSURE OUTPUT STEPS  500
Info: HARMONIC CONSTRAINTS ACTIVE
Info: HARMONIC CONS EXP      2
Info: HARMONIC CONS SCALING  10
Info: LANGEVIN DYNAMICS ACTIVE
Info: LANGEVIN TEMPERATURE   300
Info: LANGEVIN USING BBK INTEGRATOR
Info: LANGEVIN DAMPING COEFFICIENT IS 5 INVERSE PS
Info: LANGEVIN DYNAMICS NOT APPLIED TO HYDROGENS
Info: BERENDSEN PRESSURE COUPLING ACTIVE
Info:     TARGET PRESSURE IS 1 BAR
Info:     COMPRESSIBILITY ESTIMATE IS 4.57e-05 BAR^(-1)
Info:     RELAXATION TIME IS 100 FS
Info:     APPLIED EVERY 2 STEPS
Info:     PRESSURE CONTROL IS GROUP-BASED
Info:       CELL FLUCTUATION IS ISOTROPIC
Info: PARTICLE MESH EWALD (PME) ACTIVE
Info: PME TOLERANCE               1e-06
Info: PME EWALD COEFFICIENT       0.257952
Info: PME INTERPOLATION ORDER     4
Info: PME GRID DIMENSIONS         80 96 80
Info: PME MAXIMUM GRID SPACING    1
Info: FULL ELECTROSTATIC EVALUATION FREQUENCY      2
Info: USING VERLET I (r-RESPA) MTS SCHEME.
Info: C1 SPLITTING OF LONG RANGE ELECTROSTATICS
Info: PLACING ATOMS IN PATCHES BY HYDROGEN GROUPS
Info: RIGID BONDS TO HYDROGEN : WATER
Info:         ERROR TOLERANCE : 1e-05
Info:          MAX ITERATIONS : 100
Info: RIGID WATER USING SETTLE ALGORITHM
Info: RANDOM NUMBER SEED     1503700803
Info: USE HYDROGEN BONDS?    NO
Info: Using AMBER format force field!
Info: AMBER PARM FILE        ../build/complex.top
Info: COORDINATE PDB         ../replicas/rep120/equilibration/eq1.coor
Info: Exclusions in PARM file will be ignored!
Info: SCNB (VDW SCALING)     2
Info: USING ARITHMETIC MEAN TO COMBINE L-J SIGMA PARAMETERS
Info: SUMMARY OF PARAMETERS:
Info: 71 BONDS
Info: 145 ANGLES
Info: 76 DIHEDRAL
Info: 0 IMPROPER
Info: 0 CROSSTERM
Info: 0 VDW
Info: 190 VDW_PAIRS
Info: 0 NBTHOLE_PAIRS
Info: STRUCTURE SUMMARY:
Info: 49394 ATOMS
Info: 49448 BONDS
Info: 8698 ANGLES
Info: 18780 DIHEDRALS
Info: 0 IMPROPERS
Info: 0 CROSSTERMS
Info: 0 EXCLUSIONS
Info: 2336 CONSTRAINTS
Info: 44667 RIGID BONDS
Info: 103515 DEGREES OF FREEDOM
Info: 17225 HYDROGEN GROUPS
Info: 4 ATOMS IN LARGEST HYDROGEN GROUP
Info: 17225 MIGRATION GROUPS
Info: 4 ATOMS IN LARGEST MIGRATION GROUP
Info: TOTAL MASS = 301478 amu
Info: TOTAL CHARGE = 1.00115e-05 e
Info: MASS DENSITY = 0.935846 g/cm^3
Info: ATOM DENSITY = 0.0923345 atoms/A^3
Info: ADDED 70656 IMPLICIT EXCLUSIONS
Info: NONBONDED TABLE R-SQUARED SPACING: 0.0625
Info: NONBONDED TABLE SIZE: 769 POINTS
Info: REMOVING COM VELOCITY 0.00344016 0.0147209 0.013589
TCL: Running for 5000 steps
ETITLE: TS BOND ANGLE DIHED IMPRP ELECT VDW BOUNDARY MISC KINETIC TOTAL TEMP POTENTIAL TOTAL3 TEMPAVG PRESSURE GPRESSURE VOLUME PRESSAVG GPRESSAVG
ENERGY: 0 393.1142 1218.2322 2911.9051 0.0000 -213110.2458 29952.7480 0.0000 0.0000 10038.9091 -168595.3372 97.6053 -178634.2463 -168585.6150 97.6053 -2202.6162 -2301.6667 534946.2959 -2202.6162 -2301.6667
ENERGY: 1000 1254.3615 2001.4149 3116.9962 0.0000 -193648.9397 26424.1960 806.9811 0.0000 24197.1923 -135847.7978 235.2622 -160044.9901 -135815.7065 219.1004 -34.7914 6.9624 523638.9316 0.3136 -0.0118
ENERGY: 2000 1462.3346 2152.2276 3102.9409 0.0000 -184434.1080 23457.7743 817.0182 0.0000 27693.3083 -125748.5041 269.2539 -153441.8124 -125711.5478 263.9949 24.5709 -17.1128 515379.8795 -37.4734 -37.3412
ENERGY: 3000 1532.2499 2209.5190 3154.1998 0.0000 -179024.2659 21575.0114 840.4682 0.0000 29302.7002 -120410.1174 284.9015 -149712.8176 -120365.7791 282.8122 -11.3628 2.7467 510963.9303 -13.8330 -13.4730
ENERGY: 4000 1564.0209 2284.1770 3138.0043 0.0000 -176552.8010 20450.5519 826.8174 0.0000 30412.2604 -117876.9691 295.6894 -148289.2295 -117835.3567 293.2827 -40.9124 8.6342 506212.7674 -9.6583 -9.7521
ENERGY: 5000 1624.6783 2304.7507 3172.3563 0.0000 -176109.0178 20283.0481 814.6270 0.0000 30593.5916 -117315.9658 297.4525 -147909.5574 -117263.3326 297.5046 -116.1454 -32.9839 503775.6651 -8.9574 -8.6810
TCL: Setting parameter constraintScaling to 5.0
TCL: Running for 5000 steps
ETITLE: TS BOND ANGLE DIHED IMPRP ELECT VDW BOUNDARY MISC KINETIC TOTAL TEMP POTENTIAL TOTAL3 TEMPAVG PRESSURE GPRESSURE VOLUME PRESSAVG GPRESSAVG
ENERGY: 5000 1624.6783 2304.7507 3172.3563 0.0000 -176109.0178 20283.0481 407.3135 0.0000 30591.5372 -117725.3337 297.4325 -148316.8709 -117678.6055 297.4325 -232.6058 -145.0301 503775.6651 -232.6058 -145.0301
ENERGY: 6000 1631.9580 2311.3823 3152.0407 0.0000 -175686.6903 20133.0754 644.9707 0.0000 30834.2766 -116978.9867 299.7926 -147813.2633 -116943.9915 299.3613 16.6737 -19.8306 503199.7737 -6.1540 -6.0849
ENERGY: 7000 1619.3506 2308.6115 3169.9278 0.0000 -175348.2761 20063.0033 631.4722 0.0000 30701.3477 -116854.5631 298.5001 -147555.9107 -116808.5931 299.0870 -71.2594 -51.9152 503588.6528 -1.4284 -2.1309
ENERGY: 8000 1548.3308 2261.0902 3168.1665 0.0000 -175831.9126 20300.8571 630.0445 0.0000 30718.4359 -117204.9876 298.6663 -147923.4235 -117147.5090 297.3928 5.1523 27.9570 502288.7525 -10.5649 -10.6227
ENERGY: 9000 1585.4917 2343.7819 3168.5988 0.0000 -175136.6275 19984.1432 651.7420 0.0000 30680.0114 -116722.8585 298.2927 -147402.8699 -116680.2575 300.4390 -85.7190 -32.4552 502641.7807 4.4952 4.2457
ENERGY: 10000 1632.7316 2301.2487 3154.3545 0.0000 -175969.4776 20160.7534 650.4291 0.0000 31158.8621 -116911.0982 302.9484 -148069.9603 -116857.4459 300.3832 -94.3945 -22.2181 500260.3375 -9.1064 -9.0433
TCL: Setting parameter constraintScaling to 2.5
TCL: Running for 5000 steps
ETITLE: TS BOND ANGLE DIHED IMPRP ELECT VDW BOUNDARY MISC KINETIC TOTAL TEMP POTENTIAL TOTAL3 TEMPAVG PRESSURE GPRESSURE VOLUME PRESSAVG GPRESSAVG
ENERGY: 10000 1632.7316 2301.2487 3154.3545 0.0000 -175969.4776 20160.7534 325.2145 0.0000 31156.8509 -117238.3239 302.9289 -148395.1748 -117194.0430 302.9289 -173.3619 -102.0141 500260.3375 -173.3619 -102.0141
ENERGY: 11000 1608.1691 2361.2306 3179.4562 0.0000 -176353.9904 20453.0802 493.9720 0.0000 31105.9161 -117152.1663 302.4336 -148258.0823 -117102.2992 299.4133 -38.8516 -16.2095 501008.9953 -8.8723 -8.8221
ENERGY: 12000 1623.8127 2277.4104 3161.6733 0.0000 -175280.6239 20081.4933 483.3091 0.0000 30740.0048 -116912.9202 298.8760 -147652.9250 -116883.9005 299.9560 -2.7133 20.6841 502249.7601 10.1766 10.0923
ENERGY: 13000 1587.4046 2341.4828 3208.3176 0.0000 -175360.0531 20126.9537 512.3437 0.0000 31001.8753 -116581.6756 301.4221 -147583.5508 -116540.7815 300.2687 -145.9367 -76.9127 501220.0997 6.2767 6.6420
ENERGY: 14000 1623.0933 2320.0111 3196.3828 0.0000 -175349.1992 19990.5715 494.9056 0.0000 30727.7405 -116996.4944 298.7567 -147724.2349 -116960.4915 300.2857 -34.2447 2.1128 500697.3919 -12.8067 -13.1181
ENERGY: 15000 1629.6712 2345.0727 3133.6144 0.0000 -175717.8798 20054.5311 515.9421 0.0000 31049.8566 -116989.1917 301.8886 -148039.0483 -116946.9319 300.1686 -39.5043 -43.4025 500545.4926 2.9853 3.2530
TCL: Setting parameter constraintScaling to 1.25
TCL: Running for 5000 steps
ETITLE: TS BOND ANGLE DIHED IMPRP ELECT VDW BOUNDARY MISC KINETIC TOTAL TEMP POTENTIAL TOTAL3 TEMPAVG PRESSURE GPRESSURE VOLUME PRESSAVG GPRESSAVG
ENERGY: 15000 1629.6712 2345.0727 3133.6144 0.0000 -175717.8798 20054.5311 257.9710 0.0000 31047.7969 -117249.2224 301.8686 -148297.0193 -117209.8312 301.8686 -111.6735 -122.9926 500545.4926 -111.6735 -122.9926
ENERGY: 16000 1676.1004 2467.3214 3169.6029 0.0000 -176280.5930 20265.4277 402.3347 0.0000 30791.2352 -117508.5706 299.3741 -148299.8058 -117475.0443 299.4282 -129.8354 13.7890 498760.8785 -11.7690 -12.1288
ENERGY: 17000 1603.1764 2350.6701 3180.2326 0.0000 -175657.5823 20064.5633 387.8176 0.0000 30856.1647 -117214.9577 300.0054 -148071.1224 -117168.6965 300.0695 -52.4229 22.9861 499339.8693 -3.8867 -3.8553
ENERGY: 18000 1602.7736 2404.4100 3181.9886 0.0000 -175430.0039 19956.8580 396.0584 0.0000 30753.0640 -117134.8513 299.0030 -147887.9153 -117087.9063 300.4805 -23.8094 47.0094 500110.4693 7.8356 8.5651
ENERGY: 19000 1684.4336 2374.0181 3189.9952 0.0000 -176260.0677 20267.7987 399.5326 0.0000 30713.1897 -117631.0999 298.6153 -148344.2896 -117587.1015 299.5619 -69.2059 26.1196 497430.4856 -2.4324 -2.2170
ENERGY: 20000 1586.3411 2409.5993 3178.1011 0.0000 -175925.3437 20097.4706 415.9125 0.0000 30880.1864 -117357.7327 300.2389 -148237.9190 -117315.0133 299.6960 -110.4858 -47.3942 499019.1115 1.3826 1.4915
TCL: Setting parameter constraintScaling to 0.625
TCL: Running for 5000 steps
ETITLE: TS BOND ANGLE DIHED IMPRP ELECT VDW BOUNDARY MISC KINETIC TOTAL TEMP POTENTIAL TOTAL3 TEMPAVG PRESSURE GPRESSURE VOLUME PRESSAVG GPRESSAVG
ENERGY: 20000 1586.3411 2409.5993 3178.1011 0.0000 -175925.3437 20097.4706 207.9563 0.0000 30878.1352 -117567.7401 300.2190 -148445.8753 -117524.2363 300.2190 -152.2750 -88.1489 499019.1115 -152.2750 -88.1489
ENERGY: 21000 1561.0361 2387.6985 3205.7016 0.0000 -176158.8901 20255.5779 311.2347 0.0000 30797.6658 -117639.9754 299.4366 -148437.6412 -117597.9145 298.9937 -71.8513 28.9719 496852.3170 -13.5570 -12.8820
ENERGY: 22000 1567.0664 2403.3954 3180.3221 0.0000 -175982.5392 20174.4303 319.4482 0.0000 30826.3436 -117511.5333 299.7154 -148337.8769 -117470.8663 300.2916 -65.5029 26.2695 497886.3869 -0.2555 0.1211
ENERGY: 23000 1641.4110 2380.0873 3192.4082 0.0000 -175790.7028 19873.5921 308.3491 0.0000 30692.2580 -117702.5969 298.4118 -148394.8550 -117657.1833 298.5866 -33.4694 -38.4240 496095.7851 -8.2823 -8.3119
ENERGY: 24000 1628.9349 2426.8183 3172.0154 0.0000 -175922.5378 20081.8735 319.0545 0.0000 30885.8945 -117407.9467 300.2944 -148293.8412 -117371.6215 299.8807 -82.0472 -2.8540 496018.1113 1.6217 1.9239
ENERGY: 25000 1669.8917 2436.6964 3208.0574 0.0000 -175820.7995 20000.0499 314.9910 0.0000 30863.1932 -117327.9200 300.0737 -148191.1132 -117280.6913 299.8842 -96.8014 -51.6379 497628.0020 0.4056 1.1128
TCL: Setting parameter constraintScaling to 0.3125
TCL: Running for 5000 steps
ETITLE: TS BOND ANGLE DIHED IMPRP ELECT VDW BOUNDARY MISC KINETIC TOTAL TEMP POTENTIAL TOTAL3 TEMPAVG PRESSURE GPRESSURE VOLUME PRESSAVG GPRESSAVG
ENERGY: 25000 1669.8917 2436.6964 3208.0574 0.0000 -175820.7995 20000.0499 157.4955 0.0000 30861.1224 -117487.4863 300.0536 -148348.6086 -117443.9347 300.0536 -139.0557 -94.1180 497628.0020 -139.0557 -94.1180
ENERGY: 26000 1611.5937 2351.2871 3207.0652 0.0000 -175762.3805 20060.3012 243.3824 0.0000 30628.4534 -117660.2976 297.7914 -148288.7510 -117612.0265 299.8095 -80.8711 -47.2981 498433.7592 7.0888 7.4674
ENERGY: 27000 1638.3232 2351.5243 3220.7588 0.0000 -176041.9778 20072.6522 250.2373 0.0000 30727.0013 -117781.4806 298.7496 -148508.4819 -117730.0006 298.9218 -54.8724 -90.9371 497728.0538 4.2710 3.7541
ENERGY: 28000 1607.5807 2436.6232 3213.6181 0.0000 -175776.1479 19877.9766 239.2763 0.0000 30945.2346 -117455.8386 300.8714 -148401.0732 -117411.1048 299.9740 31.2427 77.3618 497958.1579 -7.9032 -7.6263
ENERGY: 29000 1618.6704 2370.8531 3200.3592 0.0000 -175552.1988 20116.5053 240.2182 0.0000 31051.4440 -116954.1485 301.9040 -148005.5925 -116898.3842 300.6410 -57.9619 -24.0422 498737.5586 2.2024 2.7156
ENERGY: 30000 1640.2088 2420.7785 3187.5742 0.0000 -175919.8391 20032.5554 263.5970 0.0000 30928.3015 -117446.8237 300.7067 -148375.1252 -117408.1477 300.0479 -8.8999 64.9062 498757.4568 2.1247 2.5601
TCL: Setting parameter constraintScaling to 0.15625
TCL: Running for 5000 steps
ETITLE: TS BOND ANGLE DIHED IMPRP ELECT VDW BOUNDARY MISC KINETIC TOTAL TEMP POTENTIAL TOTAL3 TEMPAVG PRESSURE GPRESSURE VOLUME PRESSAVG GPRESSAVG
ENERGY: 30000 1640.2088 2420.7785 3187.5742 0.0000 -175919.8391 20032.5554 131.7985 0.0000 30926.2357 -117580.6880 300.6867 -148506.9237 -117535.9369 300.6867 -30.4512 35.7238 498757.4568 -30.4512 35.7238
ENERGY: 31000 1678.3387 2424.5409 3212.0414 0.0000 -175686.5188 20145.9601 191.9813 0.0000 30755.6644 -117277.9919 299.0282 -148033.6563 -117231.2993 300.0759 -15.1228 31.3911 499035.8212 9.2186 8.9407
ENERGY: 32000 1634.4478 2439.0926 3193.7813 0.0000 -175687.6959 19861.9393 215.6461 0.0000 30607.1792 -117735.6096 297.5846 -148342.7888 -117686.9790 299.2590 -80.0968 2.5553 495353.3647 -14.6181 -14.2386
ENERGY: 33000 1626.6704 2457.1551 3237.8121 0.0000 -175701.3705 19982.6776 211.3127 0.0000 30748.3358 -117437.4068 298.9570 -148185.7426 -117392.0733 298.9379 38.1543 105.1437 497076.4247 -0.0984 0.3261
ENERGY: 34000 1658.2096 2380.7600 3228.1455 0.0000 -175726.9891 20076.5690 221.4357 0.0000 30968.6507 -117193.2185 301.0990 -148161.8692 -117152.6384 300.3767 55.5968 -52.7842 496292.3749 -13.6311 -13.4313
ENERGY: 35000 1632.3956 2392.0942 3225.0387 0.0000 -175705.7445 19951.8168 203.1063 0.0000 30803.7576 -117497.5353 299.4958 -148301.2930 -117461.5711 301.1005 -25.5208 -61.1379 497810.7237 7.3743 6.8292
TCL: Setting parameter constraintScaling to 0.078125
TCL: Running for 5000 steps
ETITLE: TS BOND ANGLE DIHED IMPRP ELECT VDW BOUNDARY MISC KINETIC TOTAL TEMP POTENTIAL TOTAL3 TEMPAVG PRESSURE GPRESSURE VOLUME PRESSAVG GPRESSAVG
ENERGY: 35000 1632.3956 2392.0942 3225.0387 0.0000 -175705.7445 19951.8168 101.5531 0.0000 30801.7015 -117601.1446 299.4758 -148402.8461 -117556.5619 299.4758 -70.6483 -100.3684 497810.7237 -70.6483 -100.3684
ENERGY: 36000 1660.1273 2371.4470 3217.3229 0.0000 -175813.8741 20023.3339 147.1740 0.0000 31003.1463 -117391.3228 301.4344 -148394.4690 -117349.3091 300.2965 11.7935 -1.4325 499592.6087 2.1191 1.5965
ENERGY: 37000 1650.4424 2444.1352 3185.6709 0.0000 -176032.3973 20271.9252 170.1272 0.0000 30995.1995 -117314.8970 301.3572 -148310.0964 -117269.3539 300.3027 -206.4423 -44.6789 498065.4536 -4.1376 -3.8643
ENERGY: 38000 1599.0027 2402.9307 3185.8554 0.0000 -176161.9331 20266.1059 161.1656 0.0000 30989.8468 -117557.0259 301.3051 -148546.8727 -117499.0084 300.1376 -63.7864 -78.4200 498394.1898 -4.2899 -3.9780
ENERGY: 39000 1597.0817 2426.2598 3223.5027 0.0000 -175189.5192 19912.3443 180.7048 0.0000 30598.6683 -117250.9577 297.5018 -147849.6260 -117199.2850 300.4223 111.1187 62.9768 498980.9181 -0.1894 0.0377
ENERGY: 40000 1671.7689 2399.5126 3212.3120 0.0000 -175687.2529 20019.7883 161.2316 0.0000 30741.1283 -117481.5111 298.8869 -148222.6394 -117436.6920 300.2247 0.1075 -40.6267 498699.5103 4.9677 5.0253
TCL: Setting parameter constraintScaling to 0.0390625
TCL: Running for 5000 steps
ETITLE: TS BOND ANGLE DIHED IMPRP ELECT VDW BOUNDARY MISC KINETIC TOTAL TEMP POTENTIAL TOTAL3 TEMPAVG PRESSURE GPRESSURE VOLUME PRESSAVG GPRESSAVG
ENERGY: 40000 1671.7689 2399.5126 3212.3120 0.0000 -175687.2529 20019.7883 80.6158 0.0000 30739.0970 -117564.1583 298.8672 -148303.2552 -117521.6039 298.8672 -10.1300 -50.7686 498699.5103 -10.1300 -50.7686
ENERGY: 41000 1660.9003 2366.1365 3226.4856 0.0000 -175829.6535 20148.1395 115.8845 0.0000 30805.3209 -117506.7862 299.5110 -148312.1071 -117457.3418 300.2202 -10.6263 -1.6640 498152.4281 -2.1099 -1.8983
ENERGY: 42000 1618.2261 2415.5002 3190.9196 0.0000 -175889.2014 20020.9676 121.6874 0.0000 30862.2858 -117659.6148 300.0649 -148521.9006 -117608.0636 299.8191 -142.6620 -24.3139 497019.3387 -5.8517 -5.9314
ENERGY: 43000 1677.3926 2387.2977 3211.1769 0.0000 -175809.9978 20051.0824 137.0848 0.0000 31041.3471 -117304.6163 301.8059 -148345.9634 -117261.6142 299.4999 -12.5813 37.7277 497492.0164 3.0816 3.1860
ENERGY: 44000 1710.5537 2394.4763 3229.4106 0.0000 -175974.2282 20240.8792 117.5325 0.0000 30803.6408 -117477.7349 299.4947 -148281.3758 -117431.2330 300.8314 -95.5931 -15.6492 498625.8506 2.7504 2.4150
ENERGY: 45000 1599.5414 2410.6454 3181.4583 0.0000 -175784.1048 20006.9415 133.7843 0.0000 30709.0209 -117742.7130 298.5747 -148451.7339 -117694.4679 299.1902 -64.8585 -37.8657 497760.3385 -5.5617 -5.6132
TCL: Setting parameter constraintScaling to 0.01953125
TCL: Running for 5000 steps
ETITLE: TS BOND ANGLE DIHED IMPRP ELECT VDW BOUNDARY MISC KINETIC TOTAL TEMP POTENTIAL TOTAL3 TEMPAVG PRESSURE GPRESSURE VOLUME PRESSAVG GPRESSAVG
ENERGY: 45000 1599.5414 2410.6454 3181.4583 0.0000 -175784.1048 20006.9415 66.8922 0.0000 30706.9690 -117811.6571 298.5548 -148518.6261 -117765.9536 298.5548 -86.2824 -56.0275 497760.3385 -86.2824 -56.0275
ENERGY: 46000 1665.5033 2411.1384 3205.0028 0.0000 -175852.4746 20049.3079 81.4918 0.0000 30798.8153 -117641.2151 299.4478 -148440.0304 -117587.7792 299.5436 -75.2542 4.7218 496785.2511 -4.8473 -4.8553
ENERGY: 47000 1671.2033 2394.4361 3238.9524 0.0000 -175975.6968 20216.7943 94.3672 0.0000 30695.9391 -117664.0045 298.4476 -148359.9435 -117618.7717 299.7431 -10.3315 -3.9835 498135.5086 -6.6893 -6.9166
ENERGY: 48000 1605.4724 2408.3499 3204.8989 0.0000 -176160.3155 20079.7232 86.0719 0.0000 30910.2247 -117865.5745 300.5310 -148775.7992 -117818.4313 299.4837 -9.5347 40.7894 497934.3918 3.5505 3.6953
ENERGY: 49000 1618.0734 2457.8200 3220.8055 0.0000 -175901.7432 20262.2883 92.2653 0.0000 30395.7882 -117854.7024 295.5293 -148250.4906 -117816.7185 298.8845 -23.1633 23.2386 497671.8221 -6.2523 -6.5688
ENERGY: 50000 1608.1088 2397.8425 3196.0829 0.0000 -176262.5310 20107.8820 88.6228 0.0000 30923.0170 -117940.9750 300.6554 -148863.9920 -117900.5827 300.2194 -40.7793 12.8944 496327.6886 1.1105 0.8096
TCL: Setting parameter constraintScaling to 0
TCL: Running for 5000 steps
ETITLE: TS BOND ANGLE DIHED IMPRP ELECT VDW BOUNDARY MISC KINETIC TOTAL TEMP POTENTIAL TOTAL3 TEMPAVG PRESSURE GPRESSURE VOLUME PRESSAVG GPRESSAVG
ENERGY: 50000 1608.1088 2397.8425 3196.0829 0.0000 -176262.5310 20107.8820 0.0000 0.0000 30920.9974 -118031.6173 300.6357 -148952.6148 -117987.4567 300.6357 -36.9244 4.3662 496327.6886 -36.9244 4.3662
ENERGY: 51000 1577.3132 2427.4529 3177.9989 0.0000 -176204.7865 20242.0911 0.0000 0.0000 30723.0646 -118056.8659 298.7113 -148779.9305 -118011.7683 299.4275 8.2554 94.1440 496444.6538 -1.8622 -2.0115
ENERGY: 52000 1662.5503 2420.8081 3209.6068 0.0000 -175898.1972 20074.0817 0.0000 0.0000 30779.0889 -117752.0615 299.2560 -148531.1503 -117710.6047 299.6758 -4.6482 -13.1922 496148.9183 -6.8797 -6.9613
ENERGY: 53000 1616.3301 2450.8610 3206.1585 0.0000 -175746.1466 19936.1623 0.0000 0.0000 30707.0644 -117829.5703 298.5557 -148536.6348 -117783.7956 299.3976 51.0962 14.5748 496818.7871 14.1961 13.8635
ENERGY: 54000 1616.5353 2453.8645 3165.7832 0.0000 -175892.4592 19888.8768 0.0000 0.0000 30764.7890 -118002.6104 299.1170 -148767.3994 -117958.6331 298.6585 -49.6477 -42.0951 496229.2640 3.2552 3.3704
ENERGY: 55000 1665.9079 2453.2864 3215.6789 0.0000 -176212.8310 20169.9295 0.0000 0.0000 30489.1591 -118218.8692 296.4371 -148708.0282 -118189.4484 298.8354 117.7175 57.3169 495038.3785 -3.4727 -3.5654
