Info: SIMULATION PARAMETERS:
Info: TIMESTEP               1
Info: NUMBER OF STEPS        0
Info: STEPS PER CYCLE        10
Info: PERIODIC CELL BASIS 1  72.449 0 0
Info: PERIODIC CELL BASIS 2  0 93.247 0
Info: PERIODIC CELL BASIS 3  0 0 79.185
Info: PERIODIC CELL CENTER   -0.248 -0.156 -0.047
Info: WRAPPING WATERS AROUND PERIODIC BOUNDARIES ON OUTPUT.
Info: WRAPPING ALL CLUSTERS AROUND PERIODIC BOUNDARIES ON OUTPUT.
Info: FIRST LDB TIMESTEP     50
Info: LAST LDB TIMESTEP     -1
Info: HOM BACKGROUND SCALING 1
Info: PME BACKGROUND SCALING 1
Info: MIN ATOMS PER PATCH    40
Info: VELOCITY FILE          ../replicas/rep21/equilibration/eq1.vel
Info: CENTER OF MASS MOVING INITIALLY? NO
Info: DIELECTRIC             1
Info: EXCLUDE                SCALED ONE-FOUR
Info: 1-4 ELECTROSTATICS SCALED BY 0.833333
Info: MODIFIED 1-4 VDW PARAMETERS WILL BE USED
Info: DCD FILENAME           ../replicas/rep21/equilibration/eq2.dcd
Info: DCD FREQUENCY          5000
Info: DCD FIRST STEP         5000
Info: DCD FILE WILL CONTAIN UNIT CELL DATA
Info: XST FILENAME           ../replicas/rep21/equilibration/eq2.xst
Info: XST FREQUENCY          5000
Info: NO VELOCITY DCD OUTPUT
Info: NO FORCE DCD OUTPUT
Info: OUTPUT FILENAME        ../replicas/rep21/equilibration/eq2
Info: RESTART FILENAME       ../replicas/rep21/equilibration/eq2.restart
Info: RESTART FREQUENCY      5000
Info: BINARY RESTART FILES WILL BE USED
Info: SWITCHING ACTIVE
Info: SWITCHING ON           10
Info: SWITCHING OFF          12
Info: PAIRLIST DISTANCE      13.5
Info: PAIRLIST SHRINK RATE   0.01
Info: PAIRLIST GROW RATE     0.01
Info: PAIRLIST TRIGGER       0.3
Info: PAIRLISTS PER CYCLE    2
Info: PAIRLISTS ENABLED
Info: MARGIN                 0.48
Info: HYDROGEN GROUP CUTOFF  2.5
Info: PATCH DIMENSION        16.48
Info: ENERGY OUTPUT STEPS    500
Info: CROSSTERM ENERGY INCLUDED IN DIHEDRAL
Info: TIMING OUTPUT STEPS    5000
Info: PRESSURE OUTPUT STEPS  500
Info: HARMONIC CONSTRAINTS ACTIVE
Info: HARMONIC CONS EXP      2
Info: HARMONIC CONS SCALING  10
Info: LANGEVIN DYNAMICS ACTIVE
Info: LANGEVIN TEMPERATURE   300
Info: LANGEVIN USING BBK INTEGRATOR
Info: LANGEVIN DAMPING COEFFICIENT IS 5 INVERSE PS
Info: LANGEVIN DYNAMICS NOT APPLIED TO HYDROGENS
Info: BERENDSEN PRESSURE COUPLING ACTIVE
Info:     TARGET PRESSURE IS 1 BAR
Info:     COMPRESSIBILITY ESTIMATE IS 4.57e-05 BAR^(-1)
Info:     RELAXATION TIME IS 100 FS
Info:     APPLIED EVERY 2 STEPS
Info:     PRESSURE CONTROL IS GROUP-BASED
Info:       CELL FLUCTUATION IS ISOTROPIC
Info: PARTICLE MESH EWALD (PME) ACTIVE
Info: PME TOLERANCE               1e-06
Info: PME EWALD COEFFICIENT       0.257952
Info: PME INTERPOLATION ORDER     4
Info: PME GRID DIMENSIONS         80 96 80
Info: PME MAXIMUM GRID SPACING    1
Info: FULL ELECTROSTATIC EVALUATION FREQUENCY      2
Info: USING VERLET I (r-RESPA) MTS SCHEME.
Info: C1 SPLITTING OF LONG RANGE ELECTROSTATICS
Info: PLACING ATOMS IN PATCHES BY HYDROGEN GROUPS
Info: RIGID BONDS TO HYDROGEN : WATER
Info:         ERROR TOLERANCE : 1e-05
Info:          MAX ITERATIONS : 100
Info: RIGID WATER USING SETTLE ALGORITHM
Info: RANDOM NUMBER SEED     1503708071
Info: USE HYDROGEN BONDS?    NO
Info: Using AMBER format force field!
Info: AMBER PARM FILE        ../build/complex.top
Info: COORDINATE PDB         ../replicas/rep21/equilibration/eq1.coor
Info: Exclusions in PARM file will be ignored!
Info: SCNB (VDW SCALING)     2
Info: USING ARITHMETIC MEAN TO COMBINE L-J SIGMA PARAMETERS
Info: SUMMARY OF PARAMETERS:
Info: 71 BONDS
Info: 145 ANGLES
Info: 76 DIHEDRAL
Info: 0 IMPROPER
Info: 0 CROSSTERM
Info: 0 VDW
Info: 190 VDW_PAIRS
Info: 0 NBTHOLE_PAIRS
Info: STRUCTURE SUMMARY:
Info: 49394 ATOMS
Info: 49448 BONDS
Info: 8698 ANGLES
Info: 18780 DIHEDRALS
Info: 0 IMPROPERS
Info: 0 CROSSTERMS
Info: 0 EXCLUSIONS
Info: 2336 CONSTRAINTS
Info: 44667 RIGID BONDS
Info: 103515 DEGREES OF FREEDOM
Info: 17225 HYDROGEN GROUPS
Info: 4 ATOMS IN LARGEST HYDROGEN GROUP
Info: 17225 MIGRATION GROUPS
Info: 4 ATOMS IN LARGEST MIGRATION GROUP
Info: TOTAL MASS = 301478 amu
Info: TOTAL CHARGE = 1.00115e-05 e
Info: MASS DENSITY = 0.935846 g/cm^3
Info: ATOM DENSITY = 0.0923345 atoms/A^3
Info: ADDED 70656 IMPLICIT EXCLUSIONS
Info: NONBONDED TABLE R-SQUARED SPACING: 0.0625
Info: NONBONDED TABLE SIZE: 769 POINTS
Info: REMOVING COM VELOCITY 0.0293535 0.00131809 -0.000739642
TCL: Running for 5000 steps
ETITLE: TS BOND ANGLE DIHED IMPRP ELECT VDW BOUNDARY MISC KINETIC TOTAL TEMP POTENTIAL TOTAL3 TEMPAVG PRESSURE GPRESSURE VOLUME PRESSAVG GPRESSAVG
ENERGY: 0 389.3099 1193.5505 2915.8605 0.0000 -212606.7537 29347.7077 0.0000 0.0000 10087.8008 -168672.5243 98.0807 -178760.3251 -168662.9421 98.0807 -2473.8200 -2574.9681 534946.2959 -2473.8200 -2574.9681
ENERGY: 1000 1234.8833 1966.8305 3112.5687 0.0000 -193182.6154 26184.1400 772.0007 0.0000 24203.8067 -135708.3854 235.3265 -159912.1921 -135672.9734 218.6956 -40.2612 15.0026 522157.0533 -14.7185 -14.7574
ENERGY: 2000 1510.7345 2138.7333 3132.9011 0.0000 -184616.2154 23510.5404 767.2730 0.0000 27978.6363 -125577.3969 272.0280 -153556.0332 -125546.5659 264.4499 -53.0782 -8.6830 514134.3115 -21.3380 -21.9269
ENERGY: 3000 1557.0437 2281.3796 3146.8165 0.0000 -179649.8044 21609.0706 794.2085 0.0000 29613.4795 -120647.8059 287.9231 -150261.2855 -120603.5848 284.1960 -37.5018 -39.0538 509350.1888 -11.8203 -11.9028
ENERGY: 4000 1574.7930 2226.6950 3127.2933 0.0000 -176953.1997 20814.0994 770.5507 0.0000 30244.2793 -118195.4890 294.0562 -148439.7683 -118157.3162 293.2941 -62.3899 2.6107 505233.6826 -25.2566 -25.4728
ENERGY: 5000 1602.0881 2265.9716 3176.7625 0.0000 -176237.8518 20360.0183 800.8085 0.0000 30833.5428 -117198.6599 299.7854 -148032.2027 -117154.8261 297.7518 25.3791 4.0802 503939.9704 -4.4993 -4.9618
TCL: Setting parameter constraintScaling to 5.0
TCL: Running for 5000 steps
ETITLE: TS BOND ANGLE DIHED IMPRP ELECT VDW BOUNDARY MISC KINETIC TOTAL TEMP POTENTIAL TOTAL3 TEMPAVG PRESSURE GPRESSURE VOLUME PRESSAVG GPRESSAVG
ENERGY: 5000 1602.0881 2265.9716 3176.7625 0.0000 -176237.8518 20360.0183 400.4043 0.0000 30831.5096 -117601.0974 299.7657 -148432.6070 -117558.1216 299.7657 -17.3173 -34.5064 503939.9704 -17.3173 -34.5064
ENERGY: 6000 1565.1647 2298.1578 3147.3391 0.0000 -175951.3101 20424.9831 650.4020 0.0000 30708.4619 -117156.8014 298.5693 -147865.2634 -117115.7845 298.8041 -51.2502 53.8219 502138.0729 -7.2484 -7.0371
ENERGY: 7000 1554.2486 2277.1234 3168.5498 0.0000 -176000.9376 20463.7648 643.8980 0.0000 30978.7768 -116914.5761 301.1975 -147893.3529 -116859.4805 298.7522 -114.0138 -54.2287 502802.6885 -5.3610 -5.1559
ENERGY: 8000 1561.1505 2364.4875 3162.0971 0.0000 -175632.1653 20259.3033 642.4710 0.0000 30855.6443 -116787.0116 300.0003 -147642.6558 -116730.5425 300.5605 31.3756 18.5060 502602.4676 8.9896 9.4111
ENERGY: 9000 1623.9881 2275.0869 3145.9589 0.0000 -175709.9412 20381.6874 642.0575 0.0000 30768.8689 -116872.2936 299.1566 -147641.1625 -116831.7741 299.8012 -7.2447 -38.0696 502432.5559 10.2248 10.4515
ENERGY: 10000 1626.2338 2272.0036 3172.6959 0.0000 -175088.1373 19831.8337 649.6605 0.0000 30772.8237 -116762.8860 299.1951 -147535.7098 -116711.3927 299.8682 -87.1389 5.2877 501563.6067 -20.1796 -20.0866
TCL: Setting parameter constraintScaling to 2.5
TCL: Running for 5000 steps
ETITLE: TS BOND ANGLE DIHED IMPRP ELECT VDW BOUNDARY MISC KINETIC TOTAL TEMP POTENTIAL TOTAL3 TEMPAVG PRESSURE GPRESSURE VOLUME PRESSAVG GPRESSAVG
ENERGY: 10000 1626.2338 2272.0036 3172.6959 0.0000 -175088.1373 19831.8337 324.8303 0.0000 30770.7681 -117089.7719 299.1751 -147860.5400 -117049.0706 299.1751 -200.1162 -109.9057 501563.6067 -200.1162 -109.9057
ENERGY: 11000 1598.5637 2324.2785 3137.0149 0.0000 -175106.3217 19921.5239 534.1488 0.0000 30734.1237 -116856.6684 298.8188 -147590.7920 -116806.7235 300.4402 -8.9309 6.4909 501021.7893 2.2263 2.0738
ENERGY: 12000 1586.0568 2329.3851 3183.9983 0.0000 -175866.5133 20146.5870 521.9692 0.0000 31026.3299 -117072.1870 301.6598 -148098.5170 -117020.7950 299.2632 -105.8370 -19.7521 499268.3415 -5.0713 -5.5731
ENERGY: 13000 1650.9096 2331.1156 3171.6818 0.0000 -175136.9822 19851.2703 527.1743 0.0000 30867.0276 -116737.8030 300.1110 -147604.8307 -116697.9756 300.1781 43.9923 37.9970 499186.0611 3.4169 3.8009
ENERGY: 14000 1601.9802 2310.3689 3169.4398 0.0000 -175976.2896 20340.7485 533.7347 0.0000 30794.9868 -117225.0307 299.4106 -148020.0175 -117176.0246 299.0160 -3.6052 -5.2242 499280.5137 -2.5650 -2.6598
ENERGY: 15000 1652.6016 2314.9960 3153.5662 0.0000 -175222.4400 19746.3879 503.6681 0.0000 30588.2956 -117262.9246 297.4010 -147851.2202 -117228.2078 299.0000 -99.9922 2.2747 497738.6264 -13.0218 -13.0597
TCL: Setting parameter constraintScaling to 1.25
TCL: Running for 5000 steps
ETITLE: TS BOND ANGLE DIHED IMPRP ELECT VDW BOUNDARY MISC KINETIC TOTAL TEMP POTENTIAL TOTAL3 TEMPAVG PRESSURE GPRESSURE VOLUME PRESSAVG GPRESSAVG
ENERGY: 15000 1652.6016 2314.9960 3153.5662 0.0000 -175222.4400 19746.3879 251.8341 0.0000 30586.2288 -117516.8255 297.3809 -148103.0543 -117476.3539 297.3809 -161.4906 -57.2876 497738.6264 -161.4906 -57.2876
ENERGY: 16000 1630.0836 2378.9771 3170.3134 0.0000 -175730.5090 20144.2010 383.0822 0.0000 30851.7928 -117172.0591 299.9629 -148023.8519 -117135.6150 300.3225 106.0399 67.7507 499162.9416 5.0472 4.5480
ENERGY: 17000 1583.3539 2446.4016 3165.2974 0.0000 -175189.8508 19771.0946 400.6718 0.0000 30863.2523 -116959.7791 300.0743 -147823.0314 -116911.7517 299.8878 -0.8430 -20.8296 500018.4905 4.8409 4.9794
ENERGY: 18000 1643.1781 2387.2344 3188.1830 0.0000 -175634.6186 19949.1001 417.7263 0.0000 30821.9364 -117227.2602 299.6726 -148049.1966 -117178.2989 300.3736 -36.0580 -40.4070 498785.1053 0.1626 0.2758
ENERGY: 19000 1665.8897 2347.9620 3205.6808 0.0000 -175402.0396 20014.8089 399.2993 0.0000 30692.5693 -117075.8296 298.4148 -147768.3989 -117026.6966 300.3638 -24.3705 4.2290 500338.5116 5.8951 5.6541
ENERGY: 20000 1639.6200 2370.5164 3191.1083 0.0000 -175640.0056 20047.7977 413.8959 0.0000 31097.7416 -116879.3257 302.3542 -147977.0673 -116831.8831 300.6341 -156.8669 -40.9662 497694.3099 -14.5787 -14.8738
TCL: Setting parameter constraintScaling to 0.625
TCL: Running for 5000 steps
ETITLE: TS BOND ANGLE DIHED IMPRP ELECT VDW BOUNDARY MISC KINETIC TOTAL TEMP POTENTIAL TOTAL3 TEMPAVG PRESSURE GPRESSURE VOLUME PRESSAVG GPRESSAVG
ENERGY: 20000 1639.6200 2370.5164 3191.1083 0.0000 -175640.0056 20047.7977 206.9479 0.0000 31095.7338 -117088.2815 302.3346 -148184.0153 -117044.9683 302.3346 -177.0149 -62.4427 497694.3099 -177.0149 -62.4427
ENERGY: 21000 1644.9720 2346.1426 3206.2486 0.0000 -175518.0680 19925.5061 317.1245 0.0000 30946.6991 -117131.3751 300.8856 -148078.0742 -117089.6110 300.3865 -143.1281 -118.2612 499894.8009 11.6160 11.8845
ENERGY: 22000 1633.1019 2417.0976 3174.2825 0.0000 -175902.0357 20254.4993 316.1106 0.0000 30789.3119 -117317.6319 299.3554 -148106.9438 -117277.2953 299.7602 -44.2237 36.3218 499423.2579 18.0450 18.5244
ENERGY: 23000 1579.6442 2454.8539 3202.9492 0.0000 -175993.0459 20149.8962 310.6522 0.0000 30776.0899 -117518.9603 299.2268 -148295.0502 -117477.0689 300.5982 -122.5014 -137.7289 497289.9138 -12.2057 -12.2290
ENERGY: 24000 1588.9766 2418.1803 3192.5831 0.0000 -176083.1396 20106.3092 303.5321 0.0000 30789.9105 -117683.6479 299.3612 -148473.5584 -117636.4136 298.5905 30.4879 23.4003 496495.8854 -6.2354 -5.9036
ENERGY: 25000 1626.1997 2393.1262 3193.3705 0.0000 -176274.8606 20164.5931 341.6541 0.0000 30769.0363 -117786.8806 299.1583 -148555.9169 -117729.7183 298.9608 10.2860 -29.6194 497060.1635 -5.2184 -5.2571
TCL: Setting parameter constraintScaling to 0.3125
TCL: Running for 5000 steps
ETITLE: TS BOND ANGLE DIHED IMPRP ELECT VDW BOUNDARY MISC KINETIC TOTAL TEMP POTENTIAL TOTAL3 TEMPAVG PRESSURE GPRESSURE VOLUME PRESSAVG GPRESSAVG
ENERGY: 25000 1626.1997 2393.1262 3193.3705 0.0000 -176274.8606 20164.5931 170.8271 0.0000 30766.9919 -117959.7521 299.1384 -148726.7440 -117915.2774 299.1384 10.5325 -30.8870 497060.1635 10.5325 -30.8870
ENERGY: 26000 1604.4992 2371.4345 3215.1596 0.0000 -175655.7346 19972.3086 246.7134 0.0000 30743.4478 -117502.1715 298.9095 -148245.6193 -117466.6202 299.4935 -37.6962 -84.8435 497323.6449 -6.3450 -6.2595
ENERGY: 27000 1549.8477 2349.8792 3159.3575 0.0000 -175736.1376 20036.1317 260.9087 0.0000 30766.9315 -117613.0813 299.1378 -148380.0128 -117575.7191 298.1174 104.9678 187.4011 497003.6834 -4.9642 -5.0969
ENERGY: 28000 1606.8407 2377.0466 3211.8958 0.0000 -175864.9667 20052.4086 248.9582 0.0000 30938.4868 -117429.3300 300.8058 -148367.8168 -117384.8448 299.1975 -236.1617 -107.6390 497448.2000 -6.0813 -6.1068
ENERGY: 29000 1669.8463 2443.9218 3227.1579 0.0000 -175708.9338 19918.8936 257.0000 0.0000 31075.5024 -117116.6117 302.1379 -148192.1142 -117077.7386 299.7804 -101.5234 -16.6277 497920.8278 2.1979 2.5284
ENERGY: 30000 1612.1823 2356.2093 3200.8090 0.0000 -175312.1536 19917.5406 245.6185 0.0000 30776.9336 -117202.8602 299.2350 -147979.7938 -117161.7941 301.2278 24.2368 9.7834 498242.1800 5.1510 5.2346
TCL: Setting parameter constraintScaling to 0.15625
TCL: Running for 5000 steps
ETITLE: TS BOND ANGLE DIHED IMPRP ELECT VDW BOUNDARY MISC KINETIC TOTAL TEMP POTENTIAL TOTAL3 TEMPAVG PRESSURE GPRESSURE VOLUME PRESSAVG GPRESSAVG
ENERGY: 30000 1612.1823 2356.2093 3200.8090 0.0000 -175312.1536 19917.5406 122.8093 0.0000 30774.8853 -117327.7177 299.2151 -148102.6031 -117285.0012 299.2151 -9.3926 -14.6130 498242.1800 -9.3926 -14.6130
ENERGY: 31000 1643.2853 2389.6416 3223.1485 0.0000 -175495.4321 20074.1886 198.0482 0.0000 30841.3563 -117125.7637 299.8614 -147967.1200 -117068.6623 300.0689 94.0639 115.3991 499067.9949 4.9623 5.8748
ENERGY: 32000 1625.6206 2407.1423 3185.5693 0.0000 -175655.9137 20034.7244 205.8195 0.0000 30789.8878 -117407.1498 299.3610 -148197.0375 -117353.3043 300.4049 42.8624 37.2694 497712.7021 -4.9464 -4.7637
ENERGY: 33000 1608.4012 2406.0284 3218.8447 0.0000 -175683.5373 19961.6462 213.7045 0.0000 31064.9365 -117209.9759 302.0352 -148274.9124 -117170.8855 299.5822 70.0938 62.8372 496779.2988 -9.7739 -9.6877
ENERGY: 34000 1636.5846 2333.0327 3202.0615 0.0000 -175570.6394 19991.7551 193.9335 0.0000 30774.3822 -117438.8898 299.2102 -148213.2720 -117396.7892 300.3193 -14.7826 -4.1903 496707.5531 -2.4742 -2.4792
ENERGY: 35000 1666.6229 2393.2043 3200.1654 0.0000 -175847.5412 20007.2615 198.5332 0.0000 30769.0867 -117612.6673 299.1587 -148381.7540 -117563.5757 299.3150 19.7957 72.0778 497229.0560 16.5527 16.4279
TCL: Setting parameter constraintScaling to 0.078125
TCL: Running for 5000 steps
ETITLE: TS BOND ANGLE DIHED IMPRP ELECT VDW BOUNDARY MISC KINETIC TOTAL TEMP POTENTIAL TOTAL3 TEMPAVG PRESSURE GPRESSURE VOLUME PRESSAVG GPRESSAVG
ENERGY: 35000 1666.6229 2393.2043 3200.1654 0.0000 -175847.5412 20007.2615 99.2666 0.0000 30767.0129 -117714.0077 299.1386 -148481.0206 -117673.6229 299.1386 21.4474 61.5494 497229.0560 21.4474 61.5494
ENERGY: 36000 1601.8799 2397.0350 3220.7761 0.0000 -176149.4867 20118.1963 144.9537 0.0000 30668.3174 -117998.3283 298.1790 -148666.6457 -117965.2463 298.7033 -20.6591 -23.6354 497336.9026 2.9988 2.7096
ENERGY: 37000 1580.7559 2372.7263 3234.6921 0.0000 -176137.9512 20164.9556 141.8738 0.0000 31007.6074 -117635.3401 301.4778 -148642.9475 -117595.2169 299.3464 -74.2103 -27.5719 497302.1213 -9.0954 -8.8824
ENERGY: 38000 1656.7658 2402.6871 3252.5469 0.0000 -175388.7422 19884.9040 160.9918 0.0000 30825.8052 -117205.0415 299.7102 -148030.8466 -117163.5465 300.0597 -24.2007 51.6962 497323.0318 -0.1288 0.7564
ENERGY: 39000 1625.3900 2466.6750 3204.5589 0.0000 -175560.5983 19974.7918 153.0557 0.0000 30722.4081 -117413.7188 298.7049 -148136.1269 -117375.2054 299.9395 32.1294 51.3735 497760.2294 17.9429 18.3153
ENERGY: 40000 1556.8362 2429.4869 3185.6175 0.0000 -175492.2137 19952.4717 163.4100 0.0000 30802.7585 -117401.6330 299.4861 -148204.3915 -117358.6027 300.9901 45.0015 59.9860 497136.5104 -11.6937 -11.7264
TCL: Setting parameter constraintScaling to 0.0390625
TCL: Running for 5000 steps
ETITLE: TS BOND ANGLE DIHED IMPRP ELECT VDW BOUNDARY MISC KINETIC TOTAL TEMP POTENTIAL TOTAL3 TEMPAVG PRESSURE GPRESSURE VOLUME PRESSAVG GPRESSAVG
ENERGY: 40000 1556.8362 2429.4869 3185.6175 0.0000 -175492.2137 19952.4717 81.7050 0.0000 30800.6661 -117485.4304 299.4658 -148286.0965 -117442.0178 299.4658 17.7084 33.1906 497136.5104 17.7084 33.1906
ENERGY: 41000 1708.4973 2432.0412 3216.2021 0.0000 -176323.8623 20285.7017 104.3839 0.0000 30968.2836 -117608.7525 301.0955 -148577.0362 -117556.9677 299.9733 41.6683 78.6064 496695.0449 4.4205 3.4120
ENERGY: 42000 1627.7510 2443.7500 3260.6481 0.0000 -176196.1654 20232.2636 114.1705 0.0000 30502.1794 -118015.4028 296.5637 -148517.5822 -117967.9105 299.1726 -85.2562 -10.1073 496581.2093 4.2974 4.9963
ENERGY: 43000 1602.2646 2335.8158 3184.9992 0.0000 -175779.1006 19972.1074 108.4744 0.0000 30930.2027 -117645.2365 300.7252 -148575.4393 -117606.0077 299.6663 42.1750 83.6633 496291.0270 -9.5567 -9.2233
ENERGY: 44000 1638.0565 2343.8663 3219.1373 0.0000 -176007.4600 20150.1198 111.9071 0.0000 30847.9312 -117696.4419 299.9253 -148544.3730 -117644.2263 299.0895 -49.5454 39.7241 497931.1122 -0.3313 0.0990
ENERGY: 45000 1642.2419 2450.8997 3235.0815 0.0000 -175951.7075 20013.5056 115.8127 0.0000 30935.9700 -117558.1961 300.7813 -148494.1661 -117518.6181 300.1113 -23.4129 -22.7250 497024.2431 1.0508 0.6197
TCL: Setting parameter constraintScaling to 0.01953125
TCL: Running for 5000 steps
ETITLE: TS BOND ANGLE DIHED IMPRP ELECT VDW BOUNDARY MISC KINETIC TOTAL TEMP POTENTIAL TOTAL3 TEMPAVG PRESSURE GPRESSURE VOLUME PRESSAVG GPRESSAVG
ENERGY: 45000 1642.2419 2450.8997 3235.0815 0.0000 -175951.7075 20013.5056 57.9064 0.0000 30933.9301 -117618.1424 300.7615 -148552.0725 -117575.3683 300.7615 -32.0408 -29.8851 497024.2431 -32.0408 -29.8851
ENERGY: 46000 1605.5816 2416.2517 3187.0810 0.0000 -175544.1781 19939.9481 70.1128 0.0000 30864.6985 -117460.5045 300.0884 -148325.2029 -117409.8540 299.6207 54.5641 44.9532 497394.1117 3.5963 3.4622
ENERGY: 47000 1627.0552 2390.6991 3198.6182 0.0000 -175913.2969 19906.0013 78.0296 0.0000 30910.0490 -117802.8446 300.5293 -148712.8936 -117756.0198 299.6478 -43.3613 -42.4357 495920.2194 -11.0734 -10.9546
ENERGY: 48000 1581.7245 2501.4425 3168.7780 0.0000 -176137.3776 19997.0693 83.8651 0.0000 30693.0534 -118111.4449 298.4195 -148804.4983 -118072.7261 299.1771 -58.1919 25.7931 495662.4088 -2.1888 -2.7264
ENERGY: 49000 1664.8615 2398.4077 3211.8281 0.0000 -176074.8159 20067.3594 87.0854 0.0000 30896.2064 -117749.0673 300.3947 -148645.2737 -117699.0267 299.9182 -53.6207 1.2441 497077.1833 6.9240 6.3289
ENERGY: 50000 1589.0395 2382.8673 3185.2464 0.0000 -176255.5565 20123.3809 93.6617 0.0000 30919.7857 -117961.5750 300.6239 -148881.3607 -117914.5123 298.8736 116.0650 102.6096 497805.9311 1.6451 2.0157
TCL: Setting parameter constraintScaling to 0
TCL: Running for 5000 steps
ETITLE: TS BOND ANGLE DIHED IMPRP ELECT VDW BOUNDARY MISC KINETIC TOTAL TEMP POTENTIAL TOTAL3 TEMPAVG PRESSURE GPRESSURE VOLUME PRESSAVG GPRESSAVG
ENERGY: 50000 1589.0395 2382.8673 3185.2464 0.0000 -176255.5565 20123.3809 0.0000 0.0000 30917.7592 -118057.2632 300.6042 -148975.0224 -118012.5212 300.6042 85.2865 81.0561 497805.9311 85.2865 81.0561
ENERGY: 51000 1629.5361 2369.0955 3231.2066 0.0000 -175804.5245 20041.4465 0.0000 0.0000 30604.1258 -117929.1140 297.5549 -148533.2398 -117874.3370 300.0396 -31.8598 0.1009 496448.2391 1.0361 1.1831
ENERGY: 52000 1648.0263 2457.9679 3200.2475 0.0000 -175770.1355 20016.0825 0.0000 0.0000 30792.5523 -117655.2591 299.3869 -148447.8113 -117608.5914 300.4800 128.4483 23.7850 497816.8331 12.4338 12.3642
ENERGY: 53000 1628.6487 2442.8809 3187.6253 0.0000 -176230.0303 20118.0075 0.0000 0.0000 31067.9429 -117784.9250 302.0644 -148852.8679 -117729.3654 300.5920 24.1025 -7.2337 496641.8049 -4.5378 -4.4612
ENERGY: 54000 1650.3731 2345.2373 3181.2822 0.0000 -175874.0560 19922.5131 0.0000 0.0000 30905.3502 -117869.3001 300.4836 -148774.6503 -117822.6857 299.9228 99.6439 31.2208 498190.4216 1.2812 1.6691
ENERGY: 55000 1624.5267 2456.5872 3255.5259 0.0000 -176043.4385 20127.6450 0.0000 0.0000 30691.1748 -117887.9788 298.4012 -148579.1536 -117850.7795 299.0260 77.3979 1.1397 497142.1306 -5.4972 -5.8405
