Info: SIMULATION PARAMETERS:
Info: TIMESTEP               2
Info: NUMBER OF STEPS        0
Info: STEPS PER CYCLE        10
Info: PERIODIC CELL BASIS 1  72.449 0 0
Info: PERIODIC CELL BASIS 2  0 93.247 0
Info: PERIODIC CELL BASIS 3  0 0 79.185
Info: PERIODIC CELL CENTER   -0.248 -0.156 -0.047
Info: WRAPPING WATERS AROUND PERIODIC BOUNDARIES ON OUTPUT.
Info: WRAPPING ALL CLUSTERS AROUND PERIODIC BOUNDARIES ON OUTPUT.
Info: FIRST LDB TIMESTEP     50
Info: LAST LDB TIMESTEP     -1
Info: HOM BACKGROUND SCALING 1
Info: PME BACKGROUND SCALING 1
Info: MIN ATOMS PER PATCH    40
Info: INITIAL TEMPERATURE    0
Info: CENTER OF MASS MOVING INITIALLY? NO
Info: DIELECTRIC             1
Info: EXCLUDE                SCALED ONE-FOUR
Info: 1-4 ELECTROSTATICS SCALED BY 0.833333
Info: MODIFIED 1-4 VDW PARAMETERS WILL BE USED
Info: NO DCD TRAJECTORY OUTPUT
Info: NO EXTENDED SYSTEM TRAJECTORY OUTPUT
Info: NO VELOCITY DCD OUTPUT
Info: NO FORCE DCD OUTPUT
Info: OUTPUT FILENAME        ../replicas/rep122/equilibration/eq0
Info: NO RESTART FILE
Info: SWITCHING ACTIVE
Info: SWITCHING ON           10
Info: SWITCHING OFF          12
Info: PAIRLIST DISTANCE      13.5
Info: PAIRLIST SHRINK RATE   0.01
Info: PAIRLIST GROW RATE     0.01
Info: PAIRLIST TRIGGER       0.3
Info: PAIRLISTS PER CYCLE    2
Info: PAIRLISTS ENABLED
Info: MARGIN                 0
Info: HYDROGEN GROUP CUTOFF  2.5
Info: PATCH DIMENSION        16
Info: ENERGY OUTPUT STEPS    500
Info: CROSSTERM ENERGY INCLUDED IN DIHEDRAL
Info: TIMING OUTPUT STEPS    5000
Info: PRESSURE OUTPUT STEPS  500
Info: HARMONIC CONSTRAINTS ACTIVE
Info: HARMONIC CONS EXP      2
Info: HARMONIC CONS SCALING  10
Info: CONJUGATE GRADIENT MINIMIZATION ACTIVE
Info: LINE MINIMIZATION GOAL = 0.001
Info: BABY STEP SIZE = 0.01
Info: TINY STEP SIZE = 1e-06
Info: PARTICLE MESH EWALD (PME) ACTIVE
Info: PME TOLERANCE               1e-06
Info: PME EWALD COEFFICIENT       0.257952
Info: PME INTERPOLATION ORDER     4
Info: PME GRID DIMENSIONS         80 96 80
Info: PME MAXIMUM GRID SPACING    1
Info: FULL ELECTROSTATIC EVALUATION FREQUENCY      2
Info: USING VERLET I (r-RESPA) MTS SCHEME.
Info: C1 SPLITTING OF LONG RANGE ELECTROSTATICS
Info: PLACING ATOMS IN PATCHES BY HYDROGEN GROUPS
Info: RIGID BONDS TO HYDROGEN : ALL
Info:         ERROR TOLERANCE : 1e-05
Info:          MAX ITERATIONS : 100
Info: RIGID WATER USING SETTLE ALGORITHM
Info: RANDOM NUMBER SEED     1503693030
Info: USE HYDROGEN BONDS?    NO
Info: Using AMBER format force field!
Info: AMBER PARM FILE        ../build/complex.top
Info: COORDINATE PDB         ../build/complex.pdb
Info: Exclusions in PARM file will be ignored!
Info: SCNB (VDW SCALING)     2
Info: USING ARITHMETIC MEAN TO COMBINE L-J SIGMA PARAMETERS
Info: SUMMARY OF PARAMETERS:
Info: 71 BONDS
Info: 145 ANGLES
Info:   145 HARMONIC
Info:   0 COSINE-BASED
Info: 76 DIHEDRAL
Info: 0 IMPROPER
Info: 0 CROSSTERM
Info: 0 VDW
Info: 190 VDW_PAIRS
Info: 0 NBTHOLE_PAIRS
Info: STRUCTURE SUMMARY:
Info: 49394 ATOMS
Info: 49448 BONDS
Info: 8698 ANGLES
Info: 18780 DIHEDRALS
Info: 0 IMPROPERS
Info: 0 CROSSTERMS
Info: 0 EXCLUSIONS
Info: 2336 CONSTRAINTS
Info: 47058 RIGID BONDS
Info: 101124 DEGREES OF FREEDOM
Info: 17225 HYDROGEN GROUPS
Info: 4 ATOMS IN LARGEST HYDROGEN GROUP
Info: 17225 MIGRATION GROUPS
Info: 4 ATOMS IN LARGEST MIGRATION GROUP
Info: TOTAL MASS = 301478 amu
Info: TOTAL CHARGE = 1.00115e-05 e
Info: MASS DENSITY = 0.935846 g/cm^3
Info: ATOM DENSITY = 0.0923345 atoms/A^3
Info: ADDED 70656 IMPLICIT EXCLUSIONS
Info: NONBONDED TABLE R-SQUARED SPACING: 0.0625
Info: NONBONDED TABLE SIZE: 769 POINTS
Info: REMOVING COM VELOCITY 0 0 0
TCL: Minimizing for 100 steps
ETITLE: TS BOND ANGLE DIHED IMPRP ELECT VDW BOUNDARY MISC KINETIC TOTAL TEMP POTENTIAL TOTAL3 TEMPAVG PRESSURE GPRESSURE VOLUME PRESSAVG GPRESSAVG
ENERGY: 0 155.4176 1012.2698 2855.7272 0.0000 -154496.7912 207729.2052 0.0468 0.0000 0.0000 57255.8754 0.0000 57255.8754 57255.8754 0.0000 116350.2532 86546.1670 534946.2959 116350.2532 86546.1670
ENERGY: 20 304.7545 935.7911 2893.4663 0.0000 -158672.9401 17936.6597 143.9454 0.0000 0.0000 -136458.3231 0.0000 -136458.3231 -136458.3231 0.0000 16523.9390 -239.4555 534946.2959 16523.9390 -239.4555
ENERGY: 40 198.7427 799.5725 2896.9273 0.0000 -162811.4534 16417.9536 221.3029 0.0000 0.0000 -142276.9543 0.0000 -142276.9543 -142276.9543 0.0000 15011.2702 -2135.4699 534946.2959 15011.2702 -2135.4699
ENERGY: 60 130.5284 715.3440 2898.2166 0.0000 -167496.1553 15446.7542 315.2796 0.0000 0.0000 -147990.0326 0.0000 -147990.0326 -147990.0326 0.0000 13793.8841 -3799.3981 534946.2959 13793.8841 -3799.3981
ENERGY: 80 431.2743 765.6309 2904.3784 0.0000 -169937.5239 15121.1530 372.0121 0.0000 0.0000 -150343.0751 0.0000 -150343.0751 -150343.0751 0.0000 13270.3323 -4577.2431 534946.2959 13270.3323 -4577.2431
ENERGY: 100 119.3885 710.0604 2905.2589 0.0000 -171259.7172 14991.7864 387.3613 0.0000 0.0000 -152145.8617 0.0000 -152145.8617 -152145.8617 0.0000 13056.2647 -4908.1739 534946.2959 13056.2647 -4908.1739
TCL: Setting parameter constraintScaling to 5.0
TCL: Minimizing for 100 steps
ETITLE: TS BOND ANGLE DIHED IMPRP ELECT VDW BOUNDARY MISC KINETIC TOTAL TEMP POTENTIAL TOTAL3 TEMPAVG PRESSURE GPRESSURE VOLUME PRESSAVG GPRESSAVG
ENERGY: 100 119.3885 710.0604 2905.2589 0.0000 -171259.7172 14991.7864 193.6807 0.0000 0.0000 -152339.5424 0.0000 -152339.5424 -152339.5424 0.0000 13672.7709 -23021.8201 534946.2959 13672.7709 -23021.8201
ENERGY: 120 108.8875 687.5859 2912.9268 0.0000 -172865.8674 14798.2714 281.1913 0.0000 0.0000 -154077.0044 0.0000 -154077.0044 -154077.0044 0.0000 13218.2571 -4906.0124 534946.2959 13218.2571 -4906.0124
ENERGY: 140 309.4889 708.8775 2913.8027 0.0000 -174236.5470 14731.4877 326.6359 0.0000 0.0000 -155246.2544 0.0000 -155246.2544 -155246.2544 0.0000 12971.5390 -5303.2158 534946.2959 12971.5390 -5303.2158
ENERGY: 160 264.9617 683.0338 2923.1582 0.0000 -176273.6812 14757.2378 382.8279 0.0000 0.0000 -157262.4618 0.0000 -157262.4618 -157262.4618 0.0000 12741.1681 -5736.4040 534946.2959 12741.1681 -5736.4040
ENERGY: 180 269.0758 744.0912 2928.5662 0.0000 -178994.0893 15023.2945 473.2340 0.0000 0.0000 -159555.8275 0.0000 -159555.8275 -159555.8275 0.0000 12521.6758 -6217.4594 534946.2959 12521.6758 -6217.4594
ENERGY: 200 238.7252 694.1141 2941.3515 0.0000 -181555.3671 15586.8446 546.2502 0.0000 0.0000 -161548.0814 0.0000 -161548.0814 -161548.0814 0.0000 12582.6333 -6425.0718 534946.2959 12582.6333 -6425.0718
TCL: Setting parameter constraintScaling to 2.5
TCL: Minimizing for 100 steps
ETITLE: TS BOND ANGLE DIHED IMPRP ELECT VDW BOUNDARY MISC KINETIC TOTAL TEMP POTENTIAL TOTAL3 TEMPAVG PRESSURE GPRESSURE VOLUME PRESSAVG GPRESSAVG
ENERGY: 200 238.7252 694.1141 2941.3515 0.0000 -181555.3671 15586.8446 273.1251 0.0000 0.0000 -161821.2065 0.0000 -161821.2065 -161821.2065 0.0000 13229.5191 -25655.8041 534946.2959 13229.5191 -25655.8041
ENERGY: 220 251.1301 680.0962 2933.0279 0.0000 -182082.8790 15470.5540 338.6983 0.0000 0.0000 -162409.3725 0.0000 -162409.3725 -162409.3725 0.0000 12967.4054 -6095.8414 534946.2959 12967.4054 -6095.8414
ENERGY: 240 139.2190 665.8439 2928.5918 0.0000 -182462.5465 15493.9818 343.6533 0.0000 0.0000 -162891.2568 0.0000 -162891.2568 -162891.2568 0.0000 13034.1296 -6108.4739 534946.2959 13034.1296 -6108.4739
ENERGY: 260 165.1136 683.7244 2921.6455 0.0000 -183940.9992 15800.4397 385.3468 0.0000 0.0000 -163984.7293 0.0000 -163984.7293 -163984.7293 0.0000 13031.9668 -6246.4073 534946.2959 13031.9668 -6246.4073
ENERGY: 280 169.1233 700.9995 2917.6205 0.0000 -185425.3734 16230.1882 454.7486 0.0000 0.0000 -164952.6933 0.0000 -164952.6933 -164952.6933 0.0000 13144.3674 -6338.0852 534946.2959 13144.3674 -6338.0852
ENERGY: 300 126.6661 639.5788 2916.2608 0.0000 -186097.7616 16447.2439 481.3839 0.0000 0.0000 -165486.6282 0.0000 -165486.6282 -165486.6282 0.0000 13208.4503 -6342.4338 534946.2959 13208.4503 -6342.4338
TCL: Setting parameter constraintScaling to 1.25
TCL: Minimizing for 100 steps
ETITLE: TS BOND ANGLE DIHED IMPRP ELECT VDW BOUNDARY MISC KINETIC TOTAL TEMP POTENTIAL TOTAL3 TEMPAVG PRESSURE GPRESSURE VOLUME PRESSAVG GPRESSAVG
ENERGY: 300 126.6661 639.5788 2916.2608 0.0000 -186097.7616 16447.2439 240.6919 0.0000 0.0000 -165727.3201 0.0000 -165727.3201 -165727.3201 0.0000 13656.8161 -26352.7608 534946.2959 13656.8161 -26352.7608
ENERGY: 320 132.2500 624.6059 2911.1442 0.0000 -186669.2575 16581.1759 272.7908 0.0000 0.0000 -166147.2907 0.0000 -166147.2907 -166147.2907 0.0000 13630.3386 -5973.9453 534946.2959 13630.3386 -5973.9453
ENERGY: 340 151.9156 624.9834 2910.7172 0.0000 -187373.3849 16809.8163 296.0370 0.0000 0.0000 -166579.9155 0.0000 -166579.9155 -166579.9155 0.0000 13645.9267 -6012.0796 534946.2959 13645.9267 -6012.0796
ENERGY: 360 179.7758 677.8233 2908.2501 0.0000 -188956.2128 17352.3261 360.2644 0.0000 0.0000 -167477.7731 0.0000 -167477.7731 -167477.7731 0.0000 13872.7962 -6004.5692 534946.2959 13872.7962 -6004.5692
ENERGY: 380 248.7359 658.4950 2905.5257 0.0000 -190525.7318 17976.4716 400.1179 0.0000 0.0000 -168336.3859 0.0000 -168336.3859 -168336.3859 0.0000 14047.1843 -5975.0886 534946.2959 14047.1843 -5975.0886
ENERGY: 400 133.6264 647.0057 2902.1967 0.0000 -190641.4391 17986.9224 400.2733 0.0000 0.0000 -168571.4146 0.0000 -168571.4146 -168571.4146 0.0000 14143.3293 -5923.9977 534946.2959 14143.3293 -5923.9977
TCL: Setting parameter constraintScaling to 0.625
TCL: Minimizing for 100 steps
ETITLE: TS BOND ANGLE DIHED IMPRP ELECT VDW BOUNDARY MISC KINETIC TOTAL TEMP POTENTIAL TOTAL3 TEMPAVG PRESSURE GPRESSURE VOLUME PRESSAVG GPRESSAVG
ENERGY: 400 133.6264 647.0057 2902.1967 0.0000 -190641.4391 17986.9224 200.1367 0.0000 0.0000 -168771.5512 0.0000 -168771.5512 -168771.5512 0.0000 14443.3586 -26628.3063 534946.2959 14443.3586 -26628.3063
ENERGY: 420 154.5844 644.2160 2893.8628 0.0000 -191113.1676 18106.1892 221.6433 0.0000 0.0000 -169092.6719 0.0000 -169092.6719 -169092.6719 0.0000 14439.6599 -5681.4695 534946.2959 14439.6599 -5681.4695
ENERGY: 440 174.2178 641.6067 2891.4463 0.0000 -191674.1454 18281.3608 243.1540 0.0000 0.0000 -169442.3598 0.0000 -169442.3598 -169442.3598 0.0000 14391.2001 -5755.1314 534946.2959 14391.2001 -5755.1314
ENERGY: 460 230.1510 672.8358 2891.4869 0.0000 -193201.4344 18840.6313 291.2417 0.0000 0.0000 -170275.0876 0.0000 -170275.0876 -170275.0876 0.0000 14670.6618 -5685.4691 534946.2959 14670.6618 -5685.4691
ENERGY: 480 145.7435 639.8303 2882.8671 0.0000 -193516.1118 18967.1724 299.5582 0.0000 0.0000 -170580.9403 0.0000 -170580.9403 -170580.9403 0.0000 14705.3699 -5669.7531 534946.2959 14705.3699 -5669.7531
ENERGY: 500 194.3056 645.2288 2882.3197 0.0000 -194330.4796 19304.6625 304.7320 0.0000 0.0000 -170999.2310 0.0000 -170999.2310 -170999.2310 0.0000 14876.5840 -5584.8362 534946.2959 14876.5840 -5584.8362
TCL: Setting parameter constraintScaling to 0.3125
TCL: Minimizing for 100 steps
ETITLE: TS BOND ANGLE DIHED IMPRP ELECT VDW BOUNDARY MISC KINETIC TOTAL TEMP POTENTIAL TOTAL3 TEMPAVG PRESSURE GPRESSURE VOLUME PRESSAVG GPRESSAVG
ENERGY: 500 194.3056 645.2288 2882.3197 0.0000 -194330.4796 19304.6625 152.3660 0.0000 0.0000 -171151.5970 0.0000 -171151.5970 -171151.5970 0.0000 15071.4791 -26866.9890 534946.2959 15071.4791 -26866.9890
ENERGY: 520 172.8051 638.1860 2876.9366 0.0000 -194672.7440 19404.1309 165.2221 0.0000 0.0000 -171415.4633 0.0000 -171415.4633 -171415.4633 0.0000 15078.7510 -5421.3450 534946.2959 15078.7510 -5421.3450
ENERGY: 540 167.8343 655.9692 2878.2832 0.0000 -195064.2913 19541.2005 176.4328 0.0000 0.0000 -171644.5714 0.0000 -171644.5714 -171644.5714 0.0000 15132.4482 -5415.4723 534946.2959 15132.4482 -5415.4723
ENERGY: 560 185.0418 653.9897 2870.9385 0.0000 -196216.1882 19973.4224 208.0760 0.0000 0.0000 -172324.7197 0.0000 -172324.7197 -172324.7197 0.0000 15298.0266 -5374.9263 534946.2959 15298.0266 -5374.9263
ENERGY: 580 159.3404 664.2511 2870.0195 0.0000 -197274.9602 20419.7356 236.0332 0.0000 0.0000 -172925.5805 0.0000 -172925.5805 -172925.5805 0.0000 15467.7697 -5326.6902 534946.2959 15467.7697 -5326.6902
ENERGY: 600 165.5939 668.3823 2861.7741 0.0000 -197517.3806 20516.4602 231.5578 0.0000 0.0000 -173073.6124 0.0000 -173073.6124 -173073.6124 0.0000 15550.7728 -5278.7431 534946.2959 15550.7728 -5278.7431
TCL: Setting parameter constraintScaling to 0.15625
TCL: Minimizing for 100 steps
ETITLE: TS BOND ANGLE DIHED IMPRP ELECT VDW BOUNDARY MISC KINETIC TOTAL TEMP POTENTIAL TOTAL3 TEMPAVG PRESSURE GPRESSURE VOLUME PRESSAVG GPRESSAVG
ENERGY: 600 165.5939 668.3823 2861.7741 0.0000 -197517.3806 20516.4602 115.7789 0.0000 0.0000 -173189.3913 0.0000 -173189.3913 -173189.3913 0.0000 15675.2249 -27018.2441 534946.2959 15675.2249 -27018.2441
ENERGY: 620 156.0175 646.7852 2864.0098 0.0000 -197627.2609 20541.0637 118.5273 0.0000 0.0000 -173300.8574 0.0000 -173300.8574 -173300.8574 0.0000 15675.6453 -5162.5962 534946.2959 15675.6453 -5162.5962
ENERGY: 640 217.5805 666.0949 2863.7347 0.0000 -198012.8446 20677.3483 124.4848 0.0000 0.0000 -173463.6015 0.0000 -173463.6015 -173463.6015 0.0000 15708.7807 -5167.5460 534946.2959 15708.7807 -5167.5460
ENERGY: 660 172.0230 646.7519 2854.3723 0.0000 -198325.9913 20785.6440 128.4494 0.0000 0.0000 -173738.7507 0.0000 -173738.7507 -173738.7507 0.0000 15785.7957 -5132.3422 534946.2959 15785.7957 -5132.3422
ENERGY: 680 159.1017 655.8281 2858.6273 0.0000 -198455.0327 20829.4731 130.6577 0.0000 0.0000 -173821.3448 0.0000 -173821.3448 -173821.3448 0.0000 15794.4386 -5141.2002 534946.2959 15794.4386 -5141.2002
ENERGY: 700 169.2861 650.7630 2850.1866 0.0000 -199101.2438 21061.6854 138.9996 0.0000 0.0000 -174230.3232 0.0000 -174230.3232 -174230.3232 0.0000 15894.2307 -5112.3616 534946.2959 15894.2307 -5112.3616
TCL: Setting parameter constraintScaling to 0.078125
TCL: Minimizing for 100 steps
ETITLE: TS BOND ANGLE DIHED IMPRP ELECT VDW BOUNDARY MISC KINETIC TOTAL TEMP POTENTIAL TOTAL3 TEMPAVG PRESSURE GPRESSURE VOLUME PRESSAVG GPRESSAVG
ENERGY: 700 169.2861 650.7630 2850.1866 0.0000 -199101.2438 21061.6854 69.4998 0.0000 0.0000 -174299.8230 0.0000 -174299.8230 -174299.8230 0.0000 15964.2566 -27103.6713 534946.2959 15964.2566 -27103.6713
ENERGY: 720 163.2241 651.4066 2846.5567 0.0000 -199310.7828 21135.6018 71.6342 0.0000 0.0000 -174442.3593 0.0000 -174442.3593 -174442.3593 0.0000 16017.5160 -5017.9644 534946.2959 16017.5160 -5017.9644
ENERGY: 740 175.3327 645.7199 2847.1052 0.0000 -199513.8773 21206.4103 73.7481 0.0000 0.0000 -174565.5612 0.0000 -174565.5612 -174565.5612 0.0000 16026.0417 -5024.2464 534946.2959 16026.0417 -5024.2464
ENERGY: 760 165.2059 658.6106 2845.3058 0.0000 -199991.5458 21377.0730 78.7511 0.0000 0.0000 -174866.5994 0.0000 -174866.5994 -174866.5994 0.0000 16099.3480 -5014.7759 534946.2959 16099.3480 -5014.7759
ENERGY: 780 158.1886 651.4300 2842.2318 0.0000 -200068.8718 21404.7413 78.9883 0.0000 0.0000 -174933.2919 0.0000 -174933.2919 -174933.2919 0.0000 16121.2235 -5001.8123 534946.2959 16121.2235 -5001.8123
ENERGY: 800 169.5465 644.8645 2836.5892 0.0000 -200740.3597 21656.2238 84.2328 0.0000 0.0000 -175348.9028 0.0000 -175348.9028 -175348.9028 0.0000 16250.3121 -4948.9344 534946.2959 16250.3121 -4948.9344
TCL: Setting parameter constraintScaling to 0.0390625
TCL: Minimizing for 100 steps
ETITLE: TS BOND ANGLE DIHED IMPRP ELECT VDW BOUNDARY MISC KINETIC TOTAL TEMP POTENTIAL TOTAL3 TEMPAVG PRESSURE GPRESSURE VOLUME PRESSAVG GPRESSAVG
ENERGY: 800 169.5465 644.8645 2836.5892 0.0000 -200740.3597 21656.2238 42.1164 0.0000 0.0000 -175391.0192 0.0000 -175391.0192 -175391.0192 0.0000 16289.6886 -27172.7561 534946.2959 16289.6886 -27172.7561
ENERGY: 820 289.4964 688.8179 2837.3187 0.0000 -200954.5216 21730.5409 43.7492 0.0000 0.0000 -175364.5984 0.0000 -175364.5984 -175364.5984 0.0000 16300.2213 -4927.7667 534946.2959 16300.2213 -4927.7667
ENERGY: 840 331.9098 772.9126 2842.1308 0.0000 -201418.4721 21945.2186 45.4622 0.0000 0.0000 -175480.8381 0.0000 -175480.8381 -175480.8381 0.0000 16451.6354 -4840.8928 534946.2959 16451.6354 -4840.8928
ENERGY: 860 166.1769 656.1348 2832.0821 0.0000 -201511.6842 21953.4384 46.2834 0.0000 0.0000 -175857.5685 0.0000 -175857.5685 -175857.5685 0.0000 16441.1476 -4851.8825 534946.2959 16441.1476 -4851.8825
ENERGY: 880 163.6049 654.1032 2832.5034 0.0000 -201602.4945 21977.6407 47.1166 0.0000 0.0000 -175927.5257 0.0000 -175927.5257 -175927.5257 0.0000 16428.0800 -4872.7344 534946.2959 16428.0800 -4872.7344
ENERGY: 900 217.2062 667.2091 2829.2103 0.0000 -202101.8736 22174.7564 49.2311 0.0000 0.0000 -176164.2605 0.0000 -176164.2605 -176164.2605 0.0000 16531.6078 -4839.3820 534946.2959 16531.6078 -4839.3820
TCL: Setting parameter constraintScaling to 0.01953125
TCL: Minimizing for 100 steps
ETITLE: TS BOND ANGLE DIHED IMPRP ELECT VDW BOUNDARY MISC KINETIC TOTAL TEMP POTENTIAL TOTAL3 TEMPAVG PRESSURE GPRESSURE VOLUME PRESSAVG GPRESSAVG
ENERGY: 900 217.2062 667.2091 2829.2103 0.0000 -202101.8736 22174.7564 24.6155 0.0000 0.0000 -176188.8760 0.0000 -176188.8760 -176188.8760 0.0000 16553.2651 -27236.7669 534946.2959 16553.2651 -27236.7669
ENERGY: 920 337.4145 738.7931 2843.5542 0.0000 -202473.2809 22323.9683 25.6828 0.0000 0.0000 -176203.8679 0.0000 -176203.8679 -176203.8679 0.0000 16651.9478 -4776.4242 534946.2959 16651.9478 -4776.4242
ENERGY: 940 284.1623 685.6899 2822.8022 0.0000 -203003.8745 22545.6125 27.3319 0.0000 0.0000 -176638.2758 0.0000 -176638.2758 -176638.2758 0.0000 16706.5227 -4752.3952 534946.2959 16706.5227 -4752.3952
ENERGY: 960 164.1051 651.1682 2819.9409 0.0000 -203242.4364 22644.5555 27.9221 0.0000 0.0000 -176934.7446 0.0000 -176934.7446 -176934.7446 0.0000 16778.2690 -4709.4900 534946.2959 16778.2690 -4709.4900
ENERGY: 980 168.1613 673.3266 2821.4424 0.0000 -203924.2910 22941.0097 29.4585 0.0000 0.0000 -177290.8924 0.0000 -177290.8924 -177290.8924 0.0000 16978.1039 -4614.6897 534946.2959 16978.1039 -4614.6897
ENERGY: 1000 180.9392 655.8089 2813.8305 0.0000 -204550.6744 23232.1032 31.3501 0.0000 0.0000 -177636.6425 0.0000 -177636.6425 -177636.6425 0.0000 17096.0533 -4563.5530 534946.2959 17096.0533 -4563.5530
TCL: Setting parameter constraintScaling to 0
TCL: Minimizing for 5000 steps
ETITLE: TS BOND ANGLE DIHED IMPRP ELECT VDW BOUNDARY MISC KINETIC TOTAL TEMP POTENTIAL TOTAL3 TEMPAVG PRESSURE GPRESSURE VOLUME PRESSAVG GPRESSAVG
ENERGY: 1000 180.9392 655.8089 2813.8305 0.0000 -204550.6744 23232.1032 0.0000 0.0000 0.0000 -177667.9927 0.0000 -177667.9927 -177667.9927 0.0000 17121.5867 -27253.4579 534946.2959 17121.5867 -27253.4579
ENERGY: 2000 167.3757 661.5381 2801.2468 0.0000 -214270.6088 27476.4591 0.0000 0.0000 0.0000 -183163.9890 0.0000 -183163.9890 -183163.9890 0.0000 19352.3236 -3397.7534 534946.2959 19352.3236 -3397.7534
ENERGY: 3000 168.2614 667.3438 2795.4214 0.0000 -217481.3781 28939.3338 0.0000 0.0000 0.0000 -184911.0178 0.0000 -184911.0178 -184911.0178 0.0000 20139.0436 -2947.8114 534946.2959 20139.0436 -2947.8114
ENERGY: 4000 166.4817 668.3406 2790.2880 0.0000 -218799.7402 29434.5478 0.0000 0.0000 0.0000 -185740.0820 0.0000 -185740.0820 -185740.0820 0.0000 20405.8623 -2820.3916 534946.2959 20405.8623 -2820.3916
ENERGY: 5000 166.3321 667.1611 2789.7536 0.0000 -219521.5854 29708.9139 0.0000 0.0000 0.0000 -186189.4247 0.0000 -186189.4247 -186189.4247 0.0000 20551.9059 -2747.9783 534946.2959 20551.9059 -2747.9783
ENERGY: 6000 165.9225 667.6606 2791.8119 0.0000 -219875.9329 29823.9412 0.0000 0.0000 0.0000 -186426.5967 0.0000 -186426.5967 -186426.5967 0.0000 20611.8846 -2722.8870 534946.2959 20611.8846 -2722.8870
