Info: SIMULATION PARAMETERS:
Info: TIMESTEP               1
Info: NUMBER OF STEPS        0
Info: STEPS PER CYCLE        10
Info: PERIODIC CELL BASIS 1  72.449 0 0
Info: PERIODIC CELL BASIS 2  0 93.247 0
Info: PERIODIC CELL BASIS 3  0 0 79.185
Info: PERIODIC CELL CENTER   -0.248 -0.156 -0.047
Info: WRAPPING WATERS AROUND PERIODIC BOUNDARIES ON OUTPUT.
Info: WRAPPING ALL CLUSTERS AROUND PERIODIC BOUNDARIES ON OUTPUT.
Info: FIRST LDB TIMESTEP     50
Info: LAST LDB TIMESTEP     -1
Info: HOM BACKGROUND SCALING 1
Info: PME BACKGROUND SCALING 1
Info: MIN ATOMS PER PATCH    40
Info: VELOCITY FILE          ../replicas/rep4/equilibration/eq1.vel
Info: CENTER OF MASS MOVING INITIALLY? NO
Info: DIELECTRIC             1
Info: EXCLUDE                SCALED ONE-FOUR
Info: 1-4 ELECTROSTATICS SCALED BY 0.833333
Info: MODIFIED 1-4 VDW PARAMETERS WILL BE USED
Info: DCD FILENAME           ../replicas/rep4/equilibration/eq2.dcd
Info: DCD FREQUENCY          5000
Info: DCD FIRST STEP         5000
Info: DCD FILE WILL CONTAIN UNIT CELL DATA
Info: XST FILENAME           ../replicas/rep4/equilibration/eq2.xst
Info: XST FREQUENCY          5000
Info: NO VELOCITY DCD OUTPUT
Info: NO FORCE DCD OUTPUT
Info: OUTPUT FILENAME        ../replicas/rep4/equilibration/eq2
Info: RESTART FILENAME       ../replicas/rep4/equilibration/eq2.restart
Info: RESTART FREQUENCY      5000
Info: BINARY RESTART FILES WILL BE USED
Info: SWITCHING ACTIVE
Info: SWITCHING ON           10
Info: SWITCHING OFF          12
Info: PAIRLIST DISTANCE      13.5
Info: PAIRLIST SHRINK RATE   0.01
Info: PAIRLIST GROW RATE     0.01
Info: PAIRLIST TRIGGER       0.3
Info: PAIRLISTS PER CYCLE    2
Info: PAIRLISTS ENABLED
Info: MARGIN                 0.48
Info: HYDROGEN GROUP CUTOFF  2.5
Info: PATCH DIMENSION        16.48
Info: ENERGY OUTPUT STEPS    500
Info: CROSSTERM ENERGY INCLUDED IN DIHEDRAL
Info: TIMING OUTPUT STEPS    5000
Info: PRESSURE OUTPUT STEPS  500
Info: HARMONIC CONSTRAINTS ACTIVE
Info: HARMONIC CONS EXP      2
Info: HARMONIC CONS SCALING  10
Info: LANGEVIN DYNAMICS ACTIVE
Info: LANGEVIN TEMPERATURE   300
Info: LANGEVIN USING BBK INTEGRATOR
Info: LANGEVIN DAMPING COEFFICIENT IS 5 INVERSE PS
Info: LANGEVIN DYNAMICS NOT APPLIED TO HYDROGENS
Info: BERENDSEN PRESSURE COUPLING ACTIVE
Info:     TARGET PRESSURE IS 1 BAR
Info:     COMPRESSIBILITY ESTIMATE IS 4.57e-05 BAR^(-1)
Info:     RELAXATION TIME IS 100 FS
Info:     APPLIED EVERY 2 STEPS
Info:     PRESSURE CONTROL IS GROUP-BASED
Info:       CELL FLUCTUATION IS ISOTROPIC
Info: PARTICLE MESH EWALD (PME) ACTIVE
Info: PME TOLERANCE               1e-06
Info: PME EWALD COEFFICIENT       0.257952
Info: PME INTERPOLATION ORDER     4
Info: PME GRID DIMENSIONS         80 96 80
Info: PME MAXIMUM GRID SPACING    1
Info: FULL ELECTROSTATIC EVALUATION FREQUENCY      2
Info: USING VERLET I (r-RESPA) MTS SCHEME.
Info: C1 SPLITTING OF LONG RANGE ELECTROSTATICS
Info: PLACING ATOMS IN PATCHES BY HYDROGEN GROUPS
Info: RIGID BONDS TO HYDROGEN : WATER
Info:         ERROR TOLERANCE : 1e-05
Info:          MAX ITERATIONS : 100
Info: RIGID WATER USING SETTLE ALGORITHM
Info: RANDOM NUMBER SEED     1503694725
Info: USE HYDROGEN BONDS?    NO
Info: Using AMBER format force field!
Info: AMBER PARM FILE        ../build/complex.top
Info: COORDINATE PDB         ../replicas/rep4/equilibration/eq1.coor
Info: Exclusions in PARM file will be ignored!
Info: SCNB (VDW SCALING)     2
Info: USING ARITHMETIC MEAN TO COMBINE L-J SIGMA PARAMETERS
Info: SUMMARY OF PARAMETERS:
Info: 71 BONDS
Info: 145 ANGLES
Info: 76 DIHEDRAL
Info: 0 IMPROPER
Info: 0 CROSSTERM
Info: 0 VDW
Info: 190 VDW_PAIRS
Info: 0 NBTHOLE_PAIRS
Info: STRUCTURE SUMMARY:
Info: 49394 ATOMS
Info: 49448 BONDS
Info: 8698 ANGLES
Info: 18780 DIHEDRALS
Info: 0 IMPROPERS
Info: 0 CROSSTERMS
Info: 0 EXCLUSIONS
Info: 2336 CONSTRAINTS
Info: 44667 RIGID BONDS
Info: 103515 DEGREES OF FREEDOM
Info: 17225 HYDROGEN GROUPS
Info: 4 ATOMS IN LARGEST HYDROGEN GROUP
Info: 17225 MIGRATION GROUPS
Info: 4 ATOMS IN LARGEST MIGRATION GROUP
Info: TOTAL MASS = 301478 amu
Info: TOTAL CHARGE = 1.00115e-05 e
Info: MASS DENSITY = 0.935846 g/cm^3
Info: ATOM DENSITY = 0.0923345 atoms/A^3
Info: ADDED 70656 IMPLICIT EXCLUSIONS
Info: NONBONDED TABLE R-SQUARED SPACING: 0.0625
Info: NONBONDED TABLE SIZE: 769 POINTS
Info: REMOVING COM VELOCITY 0.0201008 0.00518373 0.00268318
TCL: Running for 5000 steps
ETITLE: TS BOND ANGLE DIHED IMPRP ELECT VDW BOUNDARY MISC KINETIC TOTAL TEMP POTENTIAL TOTAL3 TEMPAVG PRESSURE GPRESSURE VOLUME PRESSAVG GPRESSAVG
ENERGY: 0 401.4579 1234.9618 2903.9116 0.0000 -212717.5443 29507.1629 0.0000 0.0000 10046.7467 -168623.3033 97.6816 -178670.0500 -168613.4893 97.6816 -2433.3754 -2534.7192 534946.2959 -2433.3754 -2534.7192
ENERGY: 1000 1247.6281 1987.7427 3083.6985 0.0000 -193528.9588 26542.5356 763.9133 0.0000 24074.9417 -135828.4988 234.0736 -159903.4405 -135803.5537 219.1543 -110.6734 -26.5410 522306.5722 -23.0689 -22.8461
ENERGY: 2000 1390.7610 2185.7112 3132.4300 0.0000 -183851.6176 23158.7110 794.2044 0.0000 27783.8703 -125405.9298 270.1344 -153189.8000 -125363.6260 264.1566 -3.9513 -4.6010 516046.3324 -19.1521 -18.6374
ENERGY: 3000 1514.7597 2233.6113 3128.4946 0.0000 -179054.1313 21569.3623 801.2453 0.0000 29445.4357 -120361.2223 286.2893 -149806.6580 -120317.7006 284.6352 70.9178 1.4419 513159.1608 -3.4796 -3.8516
ENERGY: 4000 1569.2888 2218.3382 3134.8908 0.0000 -176856.9019 20869.0340 831.9123 0.0000 30377.1774 -117856.2602 295.3483 -148233.4376 -117813.0632 292.7427 97.2787 15.6784 508498.3164 -13.2722 -13.8161
ENERGY: 5000 1568.7041 2238.0158 3117.4257 0.0000 -175765.3999 20295.5195 805.2793 0.0000 30573.6483 -117166.8072 297.2586 -147740.4555 -117117.1533 297.1289 13.9361 -32.3146 506033.7331 -9.7656 -9.7738
TCL: Setting parameter constraintScaling to 5.0
TCL: Running for 5000 steps
ETITLE: TS BOND ANGLE DIHED IMPRP ELECT VDW BOUNDARY MISC KINETIC TOTAL TEMP POTENTIAL TOTAL3 TEMPAVG PRESSURE GPRESSURE VOLUME PRESSAVG GPRESSAVG
ENERGY: 5000 1568.7041 2238.0158 3117.4257 0.0000 -175765.3999 20295.5195 402.6396 0.0000 30571.6184 -117571.4767 297.2388 -148143.0951 -117526.1952 297.2388 -149.2424 -194.7814 506033.7331 -149.2424 -194.7814
ENERGY: 6000 1610.6705 2362.7907 3162.5666 0.0000 -175153.1625 20067.4083 630.1023 0.0000 30883.4720 -116436.1520 300.2709 -147319.6240 -116395.4987 299.4224 -53.9750 -1.0485 504319.1962 -3.7542 -3.5394
ENERGY: 7000 1664.5771 2288.0710 3145.8502 0.0000 -175305.2940 20067.8314 677.8847 0.0000 30782.3541 -116678.7254 299.2877 -147461.0795 -116632.2325 300.3954 -80.0757 -59.5654 503431.7077 1.7471 2.2577
ENERGY: 8000 1586.4882 2376.4446 3152.5500 0.0000 -175999.4265 20329.0233 633.6617 0.0000 30706.7767 -117214.4821 298.5529 -147921.2588 -117169.9864 298.9306 10.1983 -24.9951 502013.6113 -2.1844 -2.4293
ENERGY: 9000 1570.1011 2398.2159 3130.8329 0.0000 -175611.2192 20174.5779 644.0286 0.0000 30692.9764 -117000.4865 298.4187 -147693.4629 -116965.4975 300.0555 -16.4548 0.1474 503282.6690 2.2116 2.3557
ENERGY: 10000 1581.4334 2282.6578 3135.7978 0.0000 -176170.4260 20443.3051 640.4038 0.0000 30878.7529 -117208.0751 300.2250 -148086.8280 -117159.3859 299.3682 -142.9890 -51.9946 501467.9433 -8.3533 -7.6027
TCL: Setting parameter constraintScaling to 2.5
TCL: Running for 5000 steps
ETITLE: TS BOND ANGLE DIHED IMPRP ELECT VDW BOUNDARY MISC KINETIC TOTAL TEMP POTENTIAL TOTAL3 TEMPAVG PRESSURE GPRESSURE VOLUME PRESSAVG GPRESSAVG
ENERGY: 10000 1581.4334 2282.6578 3135.7978 0.0000 -176170.4260 20443.3051 320.2019 0.0000 30876.6745 -117530.3554 300.2048 -148407.0299 -117487.7574 300.2048 -75.5949 16.0638 501467.9433 -75.5949 16.0638
ENERGY: 11000 1637.0475 2359.1335 3146.7748 0.0000 -175401.8504 19985.3781 509.3801 0.0000 30749.4917 -117014.6446 298.9682 -147764.1363 -116968.8379 299.7261 -101.9694 -34.1071 502015.1328 7.5317 7.2503
ENERGY: 12000 1645.3378 2332.3901 3199.3928 0.0000 -175573.4717 20037.5491 505.4229 0.0000 30728.8235 -117124.5555 298.7673 -147853.3790 -117081.4747 300.5367 14.9113 35.3019 500051.8765 -7.0575 -6.3627
ENERGY: 13000 1604.3252 2298.5342 3178.1004 0.0000 -175781.8379 20081.7172 493.3408 0.0000 30961.6449 -117164.1750 301.0309 -148125.8199 -117112.3200 300.3347 -113.1318 -16.8809 499799.8493 0.3830 0.3969
ENERGY: 14000 1603.6666 2352.0967 3128.3409 0.0000 -175332.5592 19911.1565 487.0598 0.0000 30770.0271 -117080.2115 299.1679 -147850.2386 -117028.7548 298.8263 -52.5344 14.3876 501054.6391 14.9462 15.3583
ENERGY: 15000 1603.8916 2389.0834 3151.1268 0.0000 -175671.4102 20229.9904 503.8916 0.0000 30874.6376 -116918.7889 300.1850 -147793.4265 -116880.8291 300.0488 -118.8042 -63.0974 501613.9086 0.1350 0.0405
TCL: Setting parameter constraintScaling to 1.25
TCL: Running for 5000 steps
ETITLE: TS BOND ANGLE DIHED IMPRP ELECT VDW BOUNDARY MISC KINETIC TOTAL TEMP POTENTIAL TOTAL3 TEMPAVG PRESSURE GPRESSURE VOLUME PRESSAVG GPRESSAVG
ENERGY: 15000 1603.8916 2389.0834 3151.1268 0.0000 -175671.4102 20229.9904 251.9458 0.0000 30872.5565 -117172.8158 300.1648 -148045.3722 -117128.4153 300.1648 -118.6606 -69.0218 501613.9086 -118.6606 -69.0218
ENERGY: 16000 1634.2992 2433.8884 3200.2276 0.0000 -175615.2063 20162.8803 409.7899 0.0000 30972.8683 -116801.2525 301.1401 -147774.1208 -116754.6028 300.9808 4.6874 16.2554 501035.9535 -1.7313 -1.7880
ENERGY: 17000 1605.5224 2375.6744 3180.2317 0.0000 -175913.7723 20401.9172 409.1038 0.0000 30568.9252 -117372.3977 297.2126 -147941.3228 -117320.3415 299.8960 -52.4794 1.5392 498955.4823 -24.2554 -24.0364
ENERGY: 18000 1658.0393 2349.8471 3192.5068 0.0000 -175738.0138 20031.1146 401.8029 0.0000 30826.7962 -117277.9070 299.7198 -148104.7032 -117238.2033 299.7759 -157.5866 -66.0731 499006.9946 2.1885 2.1577
ENERGY: 19000 1633.6897 2387.4428 3185.4109 0.0000 -175793.3029 19962.3010 413.8208 0.0000 30750.3701 -117460.2677 298.9768 -148210.6378 -117421.0889 300.4961 -65.9798 -74.5438 499207.1079 6.5683 6.6547
ENERGY: 20000 1639.8118 2335.5245 3173.6676 0.0000 -175535.1857 19925.3701 404.3098 0.0000 31220.2486 -116836.2532 303.5453 -148056.5018 -116791.1126 300.3996 -38.6813 19.6925 498939.8399 -7.5460 -7.1919
TCL: Setting parameter constraintScaling to 0.625
TCL: Running for 5000 steps
ETITLE: TS BOND ANGLE DIHED IMPRP ELECT VDW BOUNDARY MISC KINETIC TOTAL TEMP POTENTIAL TOTAL3 TEMPAVG PRESSURE GPRESSURE VOLUME PRESSAVG GPRESSAVG
ENERGY: 20000 1639.8118 2335.5245 3173.6676 0.0000 -175535.1857 19925.3701 202.1549 0.0000 31218.1816 -117040.4751 303.5252 -148258.6567 -116998.2853 303.5252 -97.6215 -35.6014 498939.8399 -97.6215 -35.6014
ENERGY: 21000 1617.8225 2337.8975 3219.8568 0.0000 -175522.6607 20065.8544 317.8784 0.0000 30788.7108 -117174.6403 299.3495 -147963.3511 -117119.4856 299.8829 -84.1970 -15.7263 498616.5705 3.8641 3.8210
ENERGY: 22000 1649.3016 2401.8669 3175.3174 0.0000 -176016.1338 20066.4029 327.9292 0.0000 30670.9094 -117724.4065 298.2042 -148395.3159 -117677.8948 299.0773 18.7659 1.7835 497464.9958 -8.7073 -8.6792
ENERGY: 23000 1587.7674 2400.6617 3181.4609 0.0000 -175636.2182 20028.0349 321.9770 0.0000 30630.4098 -117485.9065 297.8104 -148116.3164 -117454.8839 298.5738 6.7602 7.2436 497985.5641 6.6875 6.7009
ENERGY: 24000 1605.8043 2321.7931 3186.0095 0.0000 -175728.8847 19984.6996 339.5678 0.0000 30597.0960 -117693.9144 297.4865 -148291.0103 -117638.3825 299.0431 -47.2436 -18.8455 497880.7439 11.1476 11.7731
ENERGY: 25000 1618.0651 2395.5471 3192.1170 0.0000 -175653.9520 20075.0257 317.2129 0.0000 30676.4555 -117379.5287 298.2581 -148055.9842 -117342.0999 299.7296 -79.5981 19.3096 497738.5842 -6.0189 -6.1489
TCL: Setting parameter constraintScaling to 0.3125
TCL: Running for 5000 steps
ETITLE: TS BOND ANGLE DIHED IMPRP ELECT VDW BOUNDARY MISC KINETIC TOTAL TEMP POTENTIAL TOTAL3 TEMPAVG PRESSURE GPRESSURE VOLUME PRESSAVG GPRESSAVG
ENERGY: 25000 1618.0651 2395.5471 3192.1170 0.0000 -175653.9520 20075.0257 158.6065 0.0000 30674.3870 -117540.2036 298.2380 -148214.5907 -117499.6352 298.2380 -120.4222 -21.0215 497738.5842 -120.4222 -21.0215
ENERGY: 26000 1610.4224 2410.8963 3176.2308 0.0000 -175411.2891 20004.6416 247.6060 0.0000 30572.7355 -117388.7566 297.2497 -147961.4921 -117347.5573 300.0473 85.9980 96.6874 498388.8842 7.9783 7.8535
ENERGY: 27000 1633.5450 2430.4887 3218.2160 0.0000 -175416.5318 19939.8342 247.1027 0.0000 30858.8910 -117088.4541 300.0319 -147947.3452 -117037.0284 300.1520 -49.1451 -7.0067 499009.4004 7.8992 8.2553
ENERGY: 28000 1613.5035 2431.0923 3227.2703 0.0000 -175362.1871 19870.7659 258.2245 0.0000 30740.5249 -117220.8058 298.8810 -147961.3306 -117172.4294 300.4671 4.6753 -53.1958 498630.2307 -0.2032 -0.4641
ENERGY: 29000 1625.8963 2422.2745 3195.5277 0.0000 -175908.9494 20106.0257 233.2478 0.0000 30909.1196 -117416.8577 300.5202 -148325.9773 -117371.5973 298.8324 -7.7555 9.5623 498726.8557 4.9970 4.9493
ENERGY: 30000 1616.8902 2407.9560 3196.1521 0.0000 -175412.7843 19813.5673 264.4940 0.0000 31024.6395 -117089.0852 301.6434 -148113.7247 -117041.0561 299.8907 -80.9382 -102.9366 499355.3427 -5.5042 -4.7283
TCL: Setting parameter constraintScaling to 0.15625
TCL: Running for 5000 steps
ETITLE: TS BOND ANGLE DIHED IMPRP ELECT VDW BOUNDARY MISC KINETIC TOTAL TEMP POTENTIAL TOTAL3 TEMPAVG PRESSURE GPRESSURE VOLUME PRESSAVG GPRESSAVG
ENERGY: 30000 1616.8902 2407.9560 3196.1521 0.0000 -175412.7843 19813.5673 132.2470 0.0000 31022.5855 -117223.3862 301.6234 -148245.9717 -117178.4297 301.6234 -130.4139 -144.7228 499355.3427 -130.4139 -144.7228
ENERGY: 31000 1671.2974 2372.4205 3218.9535 0.0000 -175839.1468 20099.4054 198.3367 0.0000 31068.3626 -117210.3706 302.0685 -148278.7332 -117173.4019 301.0066 -131.7043 -12.5662 497534.1566 -6.6173 -6.7337
ENERGY: 32000 1632.6514 2434.5720 3215.7455 0.0000 -175564.2419 20098.9652 185.4133 0.0000 30734.3913 -117262.5033 298.8214 -147996.8946 -117213.6682 300.0712 -143.8903 45.0692 495760.9636 -7.2450 -7.2892
ENERGY: 33000 1722.7354 2438.2548 3177.9705 0.0000 -175507.6893 19969.0259 212.5697 0.0000 30743.0536 -117244.0793 298.9056 -147987.1329 -117210.1663 298.9590 -60.5348 -27.8162 497261.9412 8.4374 8.2508
ENERGY: 34000 1656.5348 2416.0652 3227.8680 0.0000 -175606.1212 20013.7623 193.8159 0.0000 31036.2104 -117061.8646 301.7559 -148098.0750 -117009.4975 301.0355 -65.9068 -89.9308 497505.9060 3.1499 2.6492
ENERGY: 35000 1631.5869 2416.3832 3216.9450 0.0000 -175819.8864 20108.4057 186.6602 0.0000 30754.8697 -117505.0358 299.0205 -148259.9055 -117462.1287 300.4658 -98.9776 -97.3942 497923.3349 -4.8658 -5.0087
TCL: Setting parameter constraintScaling to 0.078125
TCL: Running for 5000 steps
ETITLE: TS BOND ANGLE DIHED IMPRP ELECT VDW BOUNDARY MISC KINETIC TOTAL TEMP POTENTIAL TOTAL3 TEMPAVG PRESSURE GPRESSURE VOLUME PRESSAVG GPRESSAVG
ENERGY: 35000 1631.5869 2416.3832 3216.9450 0.0000 -175819.8864 20108.4057 93.3301 0.0000 30752.8227 -117600.4128 299.0006 -148353.2356 -117556.1809 299.0006 -108.4141 -101.6668 497923.3349 -108.4141 -101.6668
ENERGY: 36000 1614.5177 2416.6811 3257.9146 0.0000 -175939.5554 20082.5287 142.5913 0.0000 30470.3539 -117954.9680 296.2543 -148425.3219 -117907.8134 298.7880 -49.0283 -4.2257 496773.6363 4.5461 4.0150
ENERGY: 37000 1605.0117 2406.1085 3224.0781 0.0000 -175919.9789 20196.7874 155.8139 0.0000 30695.5189 -117636.6604 298.4435 -148332.1793 -117584.9942 299.5682 -32.9378 57.8738 496858.3443 7.4146 7.4374
ENERGY: 38000 1644.7095 2353.7631 3211.9527 0.0000 -176048.7440 20101.4109 155.9581 0.0000 30721.2995 -117859.6502 298.6941 -148580.9497 -117824.4741 299.0101 -101.8542 -34.6429 496947.8761 -6.4247 -6.3745
ENERGY: 39000 1622.5553 2393.1558 3195.3528 0.0000 -175826.3713 20016.1248 153.1427 0.0000 30814.5725 -117631.4674 299.6010 -148446.0399 -117593.6868 298.8171 57.6981 17.0353 496501.8303 -11.1277 -11.0987
ENERGY: 40000 1613.5990 2324.5850 3196.2211 0.0000 -175704.4569 19972.7004 159.1994 0.0000 30955.4786 -117482.6734 300.9710 -148438.1520 -117442.2866 299.7604 52.8763 17.3543 496572.8938 1.9174 1.7976
TCL: Setting parameter constraintScaling to 0.0390625
TCL: Running for 5000 steps
ETITLE: TS BOND ANGLE DIHED IMPRP ELECT VDW BOUNDARY MISC KINETIC TOTAL TEMP POTENTIAL TOTAL3 TEMPAVG PRESSURE GPRESSURE VOLUME PRESSAVG GPRESSAVG
ENERGY: 40000 1613.5990 2324.5850 3196.2211 0.0000 -175704.4569 19972.7004 79.5997 0.0000 30953.4679 -117564.2838 300.9514 -148517.7517 -117519.7293 300.9514 44.2749 0.3443 496572.8938 44.2749 0.3443
ENERGY: 41000 1624.1586 2421.7941 3190.7796 0.0000 -175847.2995 20048.6953 119.9626 0.0000 30835.3774 -117606.5318 299.8033 -148441.9092 -117570.1222 299.4741 -62.3092 -59.0471 497995.2826 5.4267 5.3459
ENERGY: 42000 1622.6468 2427.8224 3199.9185 0.0000 -176218.2679 20037.0673 104.3384 0.0000 30577.0731 -118249.4013 297.2919 -148826.4745 -118195.8482 298.2873 -233.9914 -129.6966 496430.6129 -12.5363 -11.9199
ENERGY: 43000 1587.4515 2443.5044 3214.0691 0.0000 -176525.1488 20195.0051 117.6620 0.0000 30868.4377 -118099.0189 300.1247 -148967.4566 -118049.9710 298.6971 138.9944 120.3368 495427.2534 -2.7115 -2.1579
ENERGY: 44000 1652.5828 2401.8578 3194.4722 0.0000 -176111.1128 20102.8069 111.1375 0.0000 30828.4922 -117819.7634 299.7363 -148648.2556 -117780.6086 299.0643 -52.1073 -13.0166 496248.8734 -9.2060 -8.9585
ENERGY: 45000 1686.7875 2426.5642 3194.5788 0.0000 -176332.7799 20149.2193 113.2518 0.0000 30810.7195 -117951.6589 299.5635 -148762.3784 -117902.2039 299.9046 -117.8632 -55.8768 496531.6187 -5.4132 -4.7552
TCL: Setting parameter constraintScaling to 0.01953125
TCL: Running for 5000 steps
ETITLE: TS BOND ANGLE DIHED IMPRP ELECT VDW BOUNDARY MISC KINETIC TOTAL TEMP POTENTIAL TOTAL3 TEMPAVG PRESSURE GPRESSURE VOLUME PRESSAVG GPRESSAVG
ENERGY: 45000 1686.7875 2426.5642 3194.5788 0.0000 -176332.7799 20149.2193 56.6259 0.0000 30808.6704 -118010.3338 299.5436 -148819.0043 -117967.0067 299.5436 -131.7309 -68.9358 496531.6187 -131.7309 -68.9358
ENERGY: 46000 1613.2677 2407.1379 3238.8115 0.0000 -175854.8594 20004.6091 69.6626 0.0000 30591.4873 -117929.8833 297.4320 -148521.3706 -117876.1585 298.6225 97.1846 12.4038 496792.4816 -0.8652 -0.8482
ENERGY: 47000 1642.7661 2391.8109 3183.4645 0.0000 -175439.0009 19934.1071 78.8933 0.0000 30739.7927 -117468.1664 298.8739 -148207.9591 -117423.9964 299.2137 -8.0493 9.7555 496670.8186 0.1706 -0.4420
ENERGY: 48000 1701.6773 2479.9164 3196.3326 0.0000 -176059.5466 20082.6055 81.3951 0.0000 30587.0779 -117930.5418 297.3891 -148517.6197 -117892.7569 299.1543 -168.8248 -111.6126 495890.0516 -3.5218 -2.9984
ENERGY: 49000 1633.3213 2391.4135 3211.7837 0.0000 -176190.5385 20113.1479 78.5429 0.0000 31019.1635 -117743.1656 301.5902 -148762.3291 -117690.1315 300.0349 -128.8133 -92.1979 496298.5897 -3.8034 -3.9311
ENERGY: 50000 1623.4403 2424.8158 3199.2503 0.0000 -176192.1321 20116.0191 89.7982 0.0000 31075.4255 -117663.3830 302.1372 -148738.8085 -117619.9705 299.1270 -69.5766 -7.7128 496917.9773 4.5696 4.2110
TCL: Setting parameter constraintScaling to 0
TCL: Running for 5000 steps
ETITLE: TS BOND ANGLE DIHED IMPRP ELECT VDW BOUNDARY MISC KINETIC TOTAL TEMP POTENTIAL TOTAL3 TEMPAVG PRESSURE GPRESSURE VOLUME PRESSAVG GPRESSAVG
ENERGY: 50000 1623.4403 2424.8158 3199.2503 0.0000 -176192.1322 20116.0191 0.0000 0.0000 31073.3929 -117755.2138 302.1174 -148828.6067 -117715.1244 302.1174 -88.8717 -21.2029 496917.9773 -88.8717 -21.2029
ENERGY: 51000 1624.3063 2387.6386 3199.8161 0.0000 -176043.6632 20084.7579 0.0000 0.0000 30966.3529 -117780.7914 301.0767 -148747.1443 -117738.1901 299.0825 -19.6266 -9.0035 496604.3943 6.5529 6.4774
ENERGY: 52000 1619.0029 2367.7924 3207.3752 0.0000 -176038.3610 20319.5523 0.0000 0.0000 30851.5030 -117673.1353 299.9601 -148524.6383 -117632.9282 299.4591 -23.4940 68.7262 497988.2971 14.0930 13.9850
ENERGY: 53000 1627.5080 2406.2408 3180.0010 0.0000 -175827.6317 19928.5723 0.0000 0.0000 30698.4337 -117986.8759 298.4718 -148685.3096 -117941.0306 299.6125 -120.5556 -61.5404 497766.1973 8.2767 7.9207
ENERGY: 54000 1649.3806 2483.7273 3184.0602 0.0000 -176091.5460 20180.5374 0.0000 0.0000 30696.7045 -117897.1359 298.4550 -148593.8404 -117857.7744 298.9537 -60.8369 25.2011 497421.5926 4.5949 4.6492
ENERGY: 55000 1647.2684 2373.0219 3180.2889 0.0000 -175719.3517 19978.5065 0.0000 0.0000 30571.3608 -117968.9051 297.2363 -148540.2660 -117932.8797 298.9373 -8.1074 32.6244 496683.2775 -4.6146 -4.8396
