Info: SIMULATION PARAMETERS:
Info: TIMESTEP               1
Info: NUMBER OF STEPS        0
Info: STEPS PER CYCLE        10
Info: PERIODIC CELL BASIS 1  72.449 0 0
Info: PERIODIC CELL BASIS 2  0 93.247 0
Info: PERIODIC CELL BASIS 3  0 0 79.185
Info: PERIODIC CELL CENTER   -0.248 -0.156 -0.047
Info: WRAPPING WATERS AROUND PERIODIC BOUNDARIES ON OUTPUT.
Info: WRAPPING ALL CLUSTERS AROUND PERIODIC BOUNDARIES ON OUTPUT.
Info: FIRST LDB TIMESTEP     50
Info: LAST LDB TIMESTEP     -1
Info: HOM BACKGROUND SCALING 1
Info: PME BACKGROUND SCALING 1
Info: MIN ATOMS PER PATCH    40
Info: VELOCITY FILE          ../replicas/rep111/equilibration/eq1.vel
Info: CENTER OF MASS MOVING INITIALLY? NO
Info: DIELECTRIC             1
Info: EXCLUDE                SCALED ONE-FOUR
Info: 1-4 ELECTROSTATICS SCALED BY 0.833333
Info: MODIFIED 1-4 VDW PARAMETERS WILL BE USED
Info: DCD FILENAME           ../replicas/rep111/equilibration/eq2.dcd
Info: DCD FREQUENCY          5000
Info: DCD FIRST STEP         5000
Info: DCD FILE WILL CONTAIN UNIT CELL DATA
Info: XST FILENAME           ../replicas/rep111/equilibration/eq2.xst
Info: XST FREQUENCY          5000
Info: NO VELOCITY DCD OUTPUT
Info: NO FORCE DCD OUTPUT
Info: OUTPUT FILENAME        ../replicas/rep111/equilibration/eq2
Info: RESTART FILENAME       ../replicas/rep111/equilibration/eq2.restart
Info: RESTART FREQUENCY      5000
Info: BINARY RESTART FILES WILL BE USED
Info: SWITCHING ACTIVE
Info: SWITCHING ON           10
Info: SWITCHING OFF          12
Info: PAIRLIST DISTANCE      13.5
Info: PAIRLIST SHRINK RATE   0.01
Info: PAIRLIST GROW RATE     0.01
Info: PAIRLIST TRIGGER       0.3
Info: PAIRLISTS PER CYCLE    2
Info: PAIRLISTS ENABLED
Info: MARGIN                 0.48
Info: HYDROGEN GROUP CUTOFF  2.5
Info: PATCH DIMENSION        16.48
Info: ENERGY OUTPUT STEPS    500
Info: CROSSTERM ENERGY INCLUDED IN DIHEDRAL
Info: TIMING OUTPUT STEPS    5000
Info: PRESSURE OUTPUT STEPS  500
Info: HARMONIC CONSTRAINTS ACTIVE
Info: HARMONIC CONS EXP      2
Info: HARMONIC CONS SCALING  10
Info: LANGEVIN DYNAMICS ACTIVE
Info: LANGEVIN TEMPERATURE   300
Info: LANGEVIN USING BBK INTEGRATOR
Info: LANGEVIN DAMPING COEFFICIENT IS 5 INVERSE PS
Info: LANGEVIN DYNAMICS NOT APPLIED TO HYDROGENS
Info: BERENDSEN PRESSURE COUPLING ACTIVE
Info:     TARGET PRESSURE IS 1 BAR
Info:     COMPRESSIBILITY ESTIMATE IS 4.57e-05 BAR^(-1)
Info:     RELAXATION TIME IS 100 FS
Info:     APPLIED EVERY 2 STEPS
Info:     PRESSURE CONTROL IS GROUP-BASED
Info:       CELL FLUCTUATION IS ISOTROPIC
Info: PARTICLE MESH EWALD (PME) ACTIVE
Info: PME TOLERANCE               1e-06
Info: PME EWALD COEFFICIENT       0.257952
Info: PME INTERPOLATION ORDER     4
Info: PME GRID DIMENSIONS         80 96 80
Info: PME MAXIMUM GRID SPACING    1
Info: FULL ELECTROSTATIC EVALUATION FREQUENCY      2
Info: USING VERLET I (r-RESPA) MTS SCHEME.
Info: C1 SPLITTING OF LONG RANGE ELECTROSTATICS
Info: PLACING ATOMS IN PATCHES BY HYDROGEN GROUPS
Info: RIGID BONDS TO HYDROGEN : WATER
Info:         ERROR TOLERANCE : 1e-05
Info:          MAX ITERATIONS : 100
Info: RIGID WATER USING SETTLE ALGORITHM
Info: RANDOM NUMBER SEED     1503717658
Info: USE HYDROGEN BONDS?    NO
Info: Using AMBER format force field!
Info: AMBER PARM FILE        ../build/complex.top
Info: COORDINATE PDB         ../replicas/rep111/equilibration/eq1.coor
Info: Exclusions in PARM file will be ignored!
Info: SCNB (VDW SCALING)     2
Info: USING ARITHMETIC MEAN TO COMBINE L-J SIGMA PARAMETERS
Info: SUMMARY OF PARAMETERS:
Info: 71 BONDS
Info: 145 ANGLES
Info: 76 DIHEDRAL
Info: 0 IMPROPER
Info: 0 CROSSTERM
Info: 0 VDW
Info: 190 VDW_PAIRS
Info: 0 NBTHOLE_PAIRS
Info: STRUCTURE SUMMARY:
Info: 49394 ATOMS
Info: 49448 BONDS
Info: 8698 ANGLES
Info: 18780 DIHEDRALS
Info: 0 IMPROPERS
Info: 0 CROSSTERMS
Info: 0 EXCLUSIONS
Info: 2336 CONSTRAINTS
Info: 44667 RIGID BONDS
Info: 103515 DEGREES OF FREEDOM
Info: 17225 HYDROGEN GROUPS
Info: 4 ATOMS IN LARGEST HYDROGEN GROUP
Info: 17225 MIGRATION GROUPS
Info: 4 ATOMS IN LARGEST MIGRATION GROUP
Info: TOTAL MASS = 301478 amu
Info: TOTAL CHARGE = 1.00115e-05 e
Info: MASS DENSITY = 0.935846 g/cm^3
Info: ATOM DENSITY = 0.0923345 atoms/A^3
Info: ADDED 70656 IMPLICIT EXCLUSIONS
Info: NONBONDED TABLE R-SQUARED SPACING: 0.0625
Info: NONBONDED TABLE SIZE: 769 POINTS
Info: REMOVING COM VELOCITY 0.029069 0.00503856 -0.0183439
TCL: Running for 5000 steps
ETITLE: TS BOND ANGLE DIHED IMPRP ELECT VDW BOUNDARY MISC KINETIC TOTAL TEMP POTENTIAL TOTAL3 TEMPAVG PRESSURE GPRESSURE VOLUME PRESSAVG GPRESSAVG
ENERGY: 0 404.6292 1217.4444 2914.3904 0.0000 -212922.6713 29752.4362 0.0000 0.0000 10119.7599 -168514.0112 98.3914 -178633.7711 -168504.2553 98.3914 -2293.4165 -2395.6441 534946.2959 -2293.4165 -2395.6441
ENERGY: 1000 1206.0346 1988.3158 3124.9961 0.0000 -193591.4349 26585.0521 780.4234 0.0000 24059.8588 -135846.7542 233.9269 -159906.6130 -135809.3995 218.4233 -37.8976 -20.1732 521921.1923 -20.3680 -20.4288
ENERGY: 2000 1460.7909 2142.4238 3143.6631 0.0000 -184454.6924 23415.6068 797.6472 0.0000 27850.8811 -125643.6794 270.7859 -153494.5606 -125614.0738 264.0793 -67.2589 -13.7222 516284.5231 -26.1735 -25.7818
ENERGY: 3000 1524.1763 2188.9218 3116.4440 0.0000 -178774.1989 21372.4461 805.5909 0.0000 29525.4557 -120241.1642 287.0673 -149766.6198 -120201.6548 284.3419 -34.8446 -4.0665 511175.5974 -26.1902 -26.2464
ENERGY: 4000 1592.1606 2275.4666 3142.2125 0.0000 -176979.0038 20849.7706 810.0878 0.0000 30374.7016 -117934.6041 295.3243 -148309.3058 -117894.0030 293.3630 -1.6398 11.7454 507490.2797 -19.2177 -19.2411
ENERGY: 5000 1568.4839 2238.9858 3158.1743 0.0000 -176191.3715 20498.2123 817.6882 0.0000 30447.2172 -117462.6099 296.0293 -147909.8271 -117410.2408 295.7139 -69.2870 -6.2814 506612.3697 -3.4245 -3.6807
TCL: Setting parameter constraintScaling to 5.0
TCL: Running for 5000 steps
ETITLE: TS BOND ANGLE DIHED IMPRP ELECT VDW BOUNDARY MISC KINETIC TOTAL TEMP POTENTIAL TOTAL3 TEMPAVG PRESSURE GPRESSURE VOLUME PRESSAVG GPRESSAVG
ENERGY: 5000 1568.4839 2238.9858 3158.1743 0.0000 -176191.3715 20498.2123 408.8441 0.0000 30445.2066 -117873.4646 296.0098 -148318.6712 -117830.8975 296.0098 -146.5057 -90.8543 506612.3697 -146.5057 -90.8543
ENERGY: 6000 1561.6360 2325.3159 3147.5488 0.0000 -175980.6830 20473.8791 659.0113 0.0000 30582.0780 -117231.2139 297.3405 -147813.2918 -117192.1685 298.3529 -16.9905 2.7561 504560.9987 -2.5066 -2.1505
ENERGY: 7000 1630.3767 2286.9223 3161.7076 0.0000 -175681.6690 20370.3713 652.9267 0.0000 30798.7782 -116780.5862 299.4474 -147579.3644 -116726.7190 300.0516 -116.6651 -15.6236 503837.3827 13.4941 13.2371
ENERGY: 8000 1543.9312 2309.2729 3182.8208 0.0000 -175001.3588 19920.8986 641.7676 0.0000 30925.3188 -116477.3490 300.6777 -147402.6678 -116426.7790 299.6641 96.7716 79.0917 504513.8911 3.3980 3.2042
ENERGY: 9000 1604.6020 2296.5776 3147.8756 0.0000 -175072.4935 19892.3678 655.6333 0.0000 30923.4349 -116552.0023 300.6594 -147475.4372 -116521.2163 300.0113 9.9405 3.0965 503201.2911 -13.2883 -13.2457
ENERGY: 10000 1590.5133 2298.8347 3141.7630 0.0000 -175279.7179 19955.3780 662.5570 0.0000 31169.7557 -116460.9164 303.0543 -147630.6720 -116413.9638 300.1699 -21.8637 -17.8398 503036.1478 -7.5386 -7.5887
TCL: Setting parameter constraintScaling to 2.5
TCL: Running for 5000 steps
ETITLE: TS BOND ANGLE DIHED IMPRP ELECT VDW BOUNDARY MISC KINETIC TOTAL TEMP POTENTIAL TOTAL3 TEMPAVG PRESSURE GPRESSURE VOLUME PRESSAVG GPRESSAVG
ENERGY: 10000 1590.5133 2298.8347 3141.7630 0.0000 -175279.7180 19955.3780 331.2785 0.0000 31167.6827 -116794.2679 303.0342 -147961.9506 -116749.7696 303.0342 -113.9268 -114.4695 503036.1478 -113.9268 -114.4695
ENERGY: 11000 1615.9677 2324.2604 3182.4196 0.0000 -175516.7297 20141.5720 541.6468 0.0000 30853.8457 -116857.0175 299.9828 -147710.8632 -116821.0766 299.5489 53.3766 30.2920 500973.2880 -16.9163 -17.1065
ENERGY: 12000 1577.1651 2340.5346 3193.4890 0.0000 -175316.8829 19939.6147 524.4704 0.0000 30730.7002 -117010.9089 298.7855 -147741.6091 -116976.9736 299.8013 17.1741 -7.1235 501075.8120 1.9056 1.8892
ENERGY: 13000 1579.1826 2330.1869 3207.7204 0.0000 -175790.0146 20349.3097 516.8028 0.0000 30760.2320 -117046.5801 299.0727 -147806.8121 -117003.7694 300.1115 -43.4737 -18.4056 500478.6571 -0.7078 -0.7408
ENERGY: 14000 1631.8210 2332.9191 3231.1793 0.0000 -175693.9197 20052.5574 565.0843 0.0000 30971.3411 -116909.0173 301.1252 -147880.3585 -116862.1978 300.4442 -126.2459 -41.7094 499603.1558 -1.8288 -1.9106
ENERGY: 15000 1623.5383 2325.3417 3187.4331 0.0000 -175913.3914 20172.1237 513.4536 0.0000 30904.6348 -117186.8663 300.4766 -148091.5011 -117135.3030 299.3546 -36.5831 -1.5828 498606.7236 2.8237 2.8162
TCL: Setting parameter constraintScaling to 1.25
TCL: Running for 5000 steps
ETITLE: TS BOND ANGLE DIHED IMPRP ELECT VDW BOUNDARY MISC KINETIC TOTAL TEMP POTENTIAL TOTAL3 TEMPAVG PRESSURE GPRESSURE VOLUME PRESSAVG GPRESSAVG
ENERGY: 15000 1623.5383 2325.3417 3187.4331 0.0000 -175913.3914 20172.1237 256.7268 0.0000 30902.6023 -117445.6256 300.4569 -148348.2279 -117404.1226 300.4569 -112.4895 -70.7242 498606.7236 -112.4895 -70.7242
ENERGY: 16000 1611.1951 2398.6016 3177.6834 0.0000 -175856.8853 20048.2913 378.8774 0.0000 30743.8854 -117498.3510 298.9137 -148242.2364 -117447.1044 298.4812 -27.5488 18.0965 497309.5892 -3.7784 -3.6270
ENERGY: 17000 1657.5960 2403.6133 3202.3052 0.0000 -175828.7773 20062.4977 423.3895 0.0000 30829.8741 -117249.5014 299.7498 -148079.3756 -117211.3284 298.6110 31.6145 31.8613 500911.0391 12.3417 12.4619
ENERGY: 18000 1621.7025 2360.6592 3185.8466 0.0000 -175425.2825 19879.2187 418.9851 0.0000 30694.0491 -117264.8213 298.4292 -147958.8704 -117226.7278 299.3072 5.5268 5.7056 500227.9842 -1.1507 -1.4969
ENERGY: 19000 1619.7198 2369.2307 3196.4701 0.0000 -175682.7600 20095.9814 421.9286 0.0000 30944.6022 -117034.8272 300.8652 -147979.4294 -116989.4464 299.8104 -114.4950 -71.3014 498294.3718 -8.0075 -8.2671
ENERGY: 20000 1640.8476 2429.0519 3200.7307 0.0000 -175340.6543 20020.0106 408.8442 0.0000 30561.9408 -117079.2286 297.1447 -147641.1693 -117036.0498 300.2630 -16.7404 48.5062 498870.1747 -0.4071 0.5924
TCL: Setting parameter constraintScaling to 0.625
TCL: Running for 5000 steps
ETITLE: TS BOND ANGLE DIHED IMPRP ELECT VDW BOUNDARY MISC KINETIC TOTAL TEMP POTENTIAL TOTAL3 TEMPAVG PRESSURE GPRESSURE VOLUME PRESSAVG GPRESSAVG
ENERGY: 20000 1640.8476 2429.0519 3200.7307 0.0000 -175340.6543 20020.0106 204.4221 0.0000 30559.8956 -117285.6957 297.1248 -147845.5914 -117240.0708 297.1248 -47.6573 12.7826 498870.1747 -47.6573 12.7826
ENERGY: 21000 1606.4954 2383.5583 3225.7962 0.0000 -175780.8657 20156.9326 308.7776 0.0000 30825.4926 -117273.8129 299.7072 -148099.3056 -117236.5877 300.7292 33.7143 76.6740 497863.4524 -5.1231 -4.2007
ENERGY: 22000 1651.0233 2381.9356 3219.5502 0.0000 -176216.5032 20446.6335 323.6160 0.0000 30555.1282 -117638.6164 297.0785 -148193.7446 -117600.8560 297.9308 -4.8535 -12.6326 498206.0363 -2.3311 -1.7770
ENERGY: 23000 1609.6815 2440.2992 3178.0399 0.0000 -175638.5006 19868.0912 322.9711 0.0000 30979.6566 -117239.7612 301.2061 -148219.4178 -117192.6851 300.1612 3.6091 67.3361 497134.4733 -4.3499 -4.3408
ENERGY: 24000 1612.7652 2391.9841 3212.1038 0.0000 -175915.4803 20109.1802 307.3268 0.0000 31079.5303 -117202.5899 302.1771 -148282.1202 -117158.3939 298.5363 -24.7732 -16.6710 498775.7926 12.1775 12.0100
ENERGY: 25000 1623.7180 2373.9197 3176.5454 0.0000 -175481.6421 20045.2809 344.1175 0.0000 30721.3622 -117196.6984 298.6947 -147918.0606 -117165.3241 299.9646 -60.9764 -26.8293 499625.7808 14.7829 14.5003
TCL: Setting parameter constraintScaling to 0.3125
TCL: Running for 5000 steps
ETITLE: TS BOND ANGLE DIHED IMPRP ELECT VDW BOUNDARY MISC KINETIC TOTAL TEMP POTENTIAL TOTAL3 TEMPAVG PRESSURE GPRESSURE VOLUME PRESSAVG GPRESSAVG
ENERGY: 25000 1623.7180 2373.9197 3176.5454 0.0000 -175481.6421 20045.2809 172.0587 0.0000 30719.2989 -117370.8204 298.6747 -148090.1193 -117326.9772 298.6747 -82.7677 -56.7321 499625.7808 -82.7677 -56.7321
ENERGY: 26000 1653.3848 2386.9929 3213.5688 0.0000 -175850.5292 20177.4353 270.2897 0.0000 30880.8423 -117268.0155 300.2453 -148148.8578 -117227.7820 300.3134 26.0361 123.1302 499613.8960 -0.9072 -0.6952
ENERGY: 27000 1642.8957 2394.2850 3228.6561 0.0000 -175644.4093 19947.8670 249.2568 0.0000 30923.5995 -117257.8492 300.6610 -148181.4487 -117221.0233 300.2041 -62.6381 -38.1663 497011.6004 -9.4690 -10.0170
ENERGY: 28000 1566.6178 2412.6404 3227.7491 0.0000 -175251.6398 19858.4582 260.0131 0.0000 30800.7504 -117125.4107 299.4666 -147926.1611 -117078.3937 300.6297 -35.7053 12.5077 498243.7573 19.5727 19.6990
ENERGY: 29000 1673.5704 2339.2069 3182.4477 0.0000 -175389.5807 19827.2154 261.7251 0.0000 30635.6061 -117469.8091 297.8610 -148105.4152 -117431.0392 298.7389 -104.3833 33.6157 498608.3788 0.6808 0.3341
ENERGY: 30000 1605.4999 2437.8085 3192.8717 0.0000 -175724.5579 20006.7314 257.0106 0.0000 30809.3289 -117415.3068 299.5500 -148224.6357 -117369.0456 300.3590 -54.9364 -63.7201 499327.3558 6.4053 6.1219
TCL: Setting parameter constraintScaling to 0.15625
TCL: Running for 5000 steps
ETITLE: TS BOND ANGLE DIHED IMPRP ELECT VDW BOUNDARY MISC KINETIC TOTAL TEMP POTENTIAL TOTAL3 TEMPAVG PRESSURE GPRESSURE VOLUME PRESSAVG GPRESSAVG
ENERGY: 30000 1605.4999 2437.8085 3192.8717 0.0000 -175724.5579 20006.7314 128.5053 0.0000 30807.2628 -117545.8782 299.5299 -148353.1410 -117501.3525 299.5299 -78.9171 -75.1363 499327.3558 -78.9171 -75.1363
ENERGY: 31000 1615.6172 2372.0800 3227.8403 0.0000 -175974.6277 20195.2795 201.3058 0.0000 30754.7957 -117607.7092 299.0198 -148362.5049 -117547.5515 300.3027 61.8647 54.6585 499467.1655 8.0314 7.8627
ENERGY: 32000 1608.4157 2403.5490 3255.8717 0.0000 -175361.3756 19993.3441 208.5369 0.0000 30819.3502 -117072.3080 299.6474 -147891.6582 -117026.6744 300.0964 -147.1427 -99.5405 499728.6825 12.2206 11.9205
ENERGY: 33000 1622.3684 2413.5458 3220.8137 0.0000 -175708.7871 20073.3747 200.4377 0.0000 30890.0771 -117288.1696 300.3351 -148178.2467 -117241.2694 300.1231 38.0690 2.7643 500176.4513 3.6258 3.5710
ENERGY: 34000 1685.7951 2418.5298 3181.1257 0.0000 -175923.1912 20287.5482 198.5121 0.0000 30744.5676 -117407.1128 298.9204 -148151.6804 -117372.7971 299.9327 -20.0053 -10.1341 500146.1903 13.3661 13.4060
ENERGY: 35000 1646.7560 2373.9448 3240.6991 0.0000 -175909.0949 20158.1051 204.0227 0.0000 30786.1437 -117499.4234 299.3246 -148285.5671 -117453.2487 299.5932 -59.7381 30.3797 497526.7493 -12.1139 -12.4519
TCL: Setting parameter constraintScaling to 0.078125
TCL: Running for 5000 steps
ETITLE: TS BOND ANGLE DIHED IMPRP ELECT VDW BOUNDARY MISC KINETIC TOTAL TEMP POTENTIAL TOTAL3 TEMPAVG PRESSURE GPRESSURE VOLUME PRESSAVG GPRESSAVG
ENERGY: 35000 1646.7560 2373.9448 3240.6991 0.0000 -175909.0949 20158.1051 102.0114 0.0000 30784.1030 -117603.4754 299.3047 -148387.5785 -117562.3822 299.3047 -55.2009 26.4356 497526.7493 -55.2009 26.4356
ENERGY: 36000 1652.7402 2435.7544 3277.9099 0.0000 -176138.6965 20102.7916 153.6434 0.0000 30969.2968 -117546.5601 301.1053 -148515.8569 -117506.6940 299.4339 -22.7302 -8.6062 497352.4748 7.3020 6.9989
ENERGY: 37000 1659.6168 2366.7685 3218.7958 0.0000 -175951.1990 20147.7810 146.5883 0.0000 30848.6749 -117562.9737 299.9326 -148411.6486 -117499.3313 300.0155 -68.2693 -16.8987 497004.2545 15.4080 15.9104
ENERGY: 38000 1593.9213 2388.5985 3199.6871 0.0000 -175706.6041 19962.4983 157.3360 0.0000 30765.9105 -117638.6525 299.1279 -148404.5629 -117592.1233 300.4832 -0.2606 123.0128 497245.0559 3.4942 3.7644
ENERGY: 39000 1611.0524 2337.3775 3231.9539 0.0000 -176189.4493 20120.9016 158.1215 0.0000 30869.7616 -117860.2807 300.1376 -148730.0423 -117799.2627 299.4421 20.0539 60.1010 497381.7822 -1.6140 -1.5695
ENERGY: 40000 1627.2216 2396.1789 3205.0014 0.0000 -176010.9872 20071.6807 166.9936 0.0000 30671.4397 -117872.4713 298.2094 -148543.9110 -117834.1088 298.7860 -83.7328 -46.1914 496638.7158 -9.5501 -9.5825
TCL: Setting parameter constraintScaling to 0.0390625
TCL: Running for 5000 steps
ETITLE: TS BOND ANGLE DIHED IMPRP ELECT VDW BOUNDARY MISC KINETIC TOTAL TEMP POTENTIAL TOTAL3 TEMPAVG PRESSURE GPRESSURE VOLUME PRESSAVG GPRESSAVG
ENERGY: 40000 1627.2216 2396.1789 3205.0014 0.0000 -176010.9872 20071.6807 83.4968 0.0000 30669.4014 -117958.0064 298.1895 -148627.4078 -117917.1910 298.1895 -106.8423 -67.7870 496638.7158 -106.8423 -67.7870
ENERGY: 41000 1681.2043 2414.6891 3178.4112 0.0000 -175746.9968 20113.0630 116.6369 0.0000 30634.0652 -117608.9271 297.8460 -148242.9923 -117558.9374 299.4962 -48.4794 26.6153 497881.2769 12.2675 12.4410
ENERGY: 42000 1664.9821 2408.6448 3210.3556 0.0000 -176030.6033 20195.0366 101.4487 0.0000 30760.4719 -117689.6635 299.0750 -148450.1354 -117641.5058 299.0134 -140.3277 -68.0149 498201.6516 -7.1245 -7.3371
ENERGY: 43000 1620.9517 2402.3126 3245.7172 0.0000 -175714.8696 19752.0007 118.2299 0.0000 30787.3979 -117788.2597 299.3368 -148575.6576 -117728.5843 298.9211 -146.2627 -72.1262 497758.3420 -7.1513 -7.3498
ENERGY: 44000 1648.9138 2388.7010 3211.4087 0.0000 -175972.9739 20241.6339 122.1827 0.0000 30855.3413 -117504.7924 299.9974 -148360.1337 -117454.7955 300.0069 80.9448 144.3953 496696.0418 -3.7720 -3.8929
ENERGY: 45000 1685.6231 2430.3928 3236.3984 0.0000 -175904.2144 19938.0811 123.9088 0.0000 30813.3810 -117676.4292 299.5894 -148489.8102 -117631.5495 299.5751 -10.7627 -29.4598 496318.9655 -8.0934 -8.4619
TCL: Setting parameter constraintScaling to 0.01953125
TCL: Running for 5000 steps
ETITLE: TS BOND ANGLE DIHED IMPRP ELECT VDW BOUNDARY MISC KINETIC TOTAL TEMP POTENTIAL TOTAL3 TEMPAVG PRESSURE GPRESSURE VOLUME PRESSAVG GPRESSAVG
ENERGY: 45000 1685.6231 2430.3928 3236.3984 0.0000 -175904.2144 19938.0811 61.9544 0.0000 30811.3367 -117740.4279 299.5695 -148551.7645 -117697.7934 299.5695 -19.9212 -42.0335 496318.9655 -19.9212 -42.0335
ENERGY: 46000 1557.5300 2472.6259 3200.1710 0.0000 -175971.4825 19963.3192 86.0536 0.0000 30680.1846 -118011.5981 298.2944 -148691.7827 -117972.6319 299.3860 58.6052 54.0164 495787.0271 1.1455 1.3563
ENERGY: 47000 1579.7517 2389.2052 3213.2932 0.0000 -176321.1933 20022.0569 87.6763 0.0000 30916.6775 -118112.5325 300.5937 -149029.2101 -118062.8034 299.0492 65.3158 37.3943 495328.2275 -3.8611 -3.7069
ENERGY: 48000 1670.0210 2374.9571 3207.1079 0.0000 -176014.2761 19956.8153 75.3771 0.0000 30888.3391 -117841.6586 300.3182 -148729.9977 -117792.6300 298.5804 -72.7422 9.7365 496529.7263 2.0359 1.8991
ENERGY: 49000 1607.6444 2463.0310 3188.8135 0.0000 -175987.8368 20075.9471 91.1643 0.0000 31002.0829 -117559.1536 301.4241 -148561.2365 -117510.9809 298.9984 -76.2975 -10.5348 496992.7244 9.6590 9.6946
ENERGY: 50000 1712.8957 2429.9907 3188.5109 0.0000 -175675.5272 20041.5014 90.5121 0.0000 30901.2630 -117310.8533 300.4439 -148212.1164 -117261.4819 300.1039 -9.7985 7.9162 497305.2967 9.3148 9.5697
TCL: Setting parameter constraintScaling to 0
TCL: Running for 5000 steps
ETITLE: TS BOND ANGLE DIHED IMPRP ELECT VDW BOUNDARY MISC KINETIC TOTAL TEMP POTENTIAL TOTAL3 TEMPAVG PRESSURE GPRESSURE VOLUME PRESSAVG GPRESSAVG
ENERGY: 50000 1712.8957 2429.9907 3188.5109 0.0000 -175675.5272 20041.5014 0.0000 0.0000 30899.2509 -117403.3775 300.4243 -148302.6284 -117362.6527 300.4243 -12.0159 7.0756 497305.2967 -12.0159 7.0756
ENERGY: 51000 1693.9014 2431.0731 3210.5868 0.0000 -176275.4746 20257.8096 0.0000 0.0000 30836.6688 -117845.4349 299.8158 -148682.1037 -117797.8043 299.7772 -63.4885 57.3586 498018.8364 7.3311 7.3856
ENERGY: 52000 1609.2377 2439.5338 3234.0519 0.0000 -175943.2154 20207.4168 0.0000 0.0000 30794.2170 -117658.7583 299.4031 -148452.9753 -117599.8663 300.0954 86.8697 127.0751 496326.0080 -4.7836 -4.7470
ENERGY: 53000 1615.6080 2438.5326 3211.7882 0.0000 -176010.8569 20103.0799 0.0000 0.0000 30775.7693 -117866.0788 299.2237 -148641.8481 -117823.2371 300.4055 36.2332 82.0429 498205.0616 9.7749 9.6838
ENERGY: 54000 1659.2722 2386.1474 3160.9666 0.0000 -175821.6902 19962.0170 0.0000 0.0000 30655.6409 -117997.6461 298.0557 -148653.2870 -117961.4913 299.7153 -72.5254 -138.1754 497501.6224 -5.6092 -5.5032
ENERGY: 55000 1611.8591 2418.3451 3143.8676 0.0000 -176209.7200 20030.6877 0.0000 0.0000 30759.3864 -118245.5740 299.0644 -149004.9604 -118208.8631 298.1174 -125.0349 -38.2637 496635.0719 -0.1692 0.0422
