Info: SIMULATION PARAMETERS:
Info: TIMESTEP               2
Info: NUMBER OF STEPS        0
Info: STEPS PER CYCLE        10
Info: PERIODIC CELL BASIS 1  72.449 0 0
Info: PERIODIC CELL BASIS 2  0 93.247 0
Info: PERIODIC CELL BASIS 3  0 0 79.185
Info: PERIODIC CELL CENTER   -0.248 -0.156 -0.047
Info: WRAPPING WATERS AROUND PERIODIC BOUNDARIES ON OUTPUT.
Info: WRAPPING ALL CLUSTERS AROUND PERIODIC BOUNDARIES ON OUTPUT.
Info: FIRST LDB TIMESTEP     50
Info: LAST LDB TIMESTEP     -1
Info: HOM BACKGROUND SCALING 1
Info: PME BACKGROUND SCALING 1
Info: MIN ATOMS PER PATCH    40
Info: INITIAL TEMPERATURE    0
Info: CENTER OF MASS MOVING INITIALLY? NO
Info: DIELECTRIC             1
Info: EXCLUDE                SCALED ONE-FOUR
Info: 1-4 ELECTROSTATICS SCALED BY 0.833333
Info: MODIFIED 1-4 VDW PARAMETERS WILL BE USED
Info: NO DCD TRAJECTORY OUTPUT
Info: NO EXTENDED SYSTEM TRAJECTORY OUTPUT
Info: NO VELOCITY DCD OUTPUT
Info: NO FORCE DCD OUTPUT
Info: OUTPUT FILENAME        ../replicas/rep52/equilibration/eq0
Info: NO RESTART FILE
Info: SWITCHING ACTIVE
Info: SWITCHING ON           10
Info: SWITCHING OFF          12
Info: PAIRLIST DISTANCE      13.5
Info: PAIRLIST SHRINK RATE   0.01
Info: PAIRLIST GROW RATE     0.01
Info: PAIRLIST TRIGGER       0.3
Info: PAIRLISTS PER CYCLE    2
Info: PAIRLISTS ENABLED
Info: MARGIN                 0
Info: HYDROGEN GROUP CUTOFF  2.5
Info: PATCH DIMENSION        16
Info: ENERGY OUTPUT STEPS    500
Info: CROSSTERM ENERGY INCLUDED IN DIHEDRAL
Info: TIMING OUTPUT STEPS    5000
Info: PRESSURE OUTPUT STEPS  500
Info: HARMONIC CONSTRAINTS ACTIVE
Info: HARMONIC CONS EXP      2
Info: HARMONIC CONS SCALING  10
Info: CONJUGATE GRADIENT MINIMIZATION ACTIVE
Info: LINE MINIMIZATION GOAL = 0.001
Info: BABY STEP SIZE = 0.01
Info: TINY STEP SIZE = 1e-06
Info: PARTICLE MESH EWALD (PME) ACTIVE
Info: PME TOLERANCE               1e-06
Info: PME EWALD COEFFICIENT       0.257952
Info: PME INTERPOLATION ORDER     4
Info: PME GRID DIMENSIONS         80 96 80
Info: PME MAXIMUM GRID SPACING    1
Info: FULL ELECTROSTATIC EVALUATION FREQUENCY      2
Info: USING VERLET I (r-RESPA) MTS SCHEME.
Info: C1 SPLITTING OF LONG RANGE ELECTROSTATICS
Info: PLACING ATOMS IN PATCHES BY HYDROGEN GROUPS
Info: RIGID BONDS TO HYDROGEN : ALL
Info:         ERROR TOLERANCE : 1e-05
Info:          MAX ITERATIONS : 100
Info: RIGID WATER USING SETTLE ALGORITHM
Info: RANDOM NUMBER SEED     1503690772
Info: USE HYDROGEN BONDS?    NO
Info: Using AMBER format force field!
Info: AMBER PARM FILE        ../build/complex.top
Info: COORDINATE PDB         ../build/complex.pdb
Info: Exclusions in PARM file will be ignored!
Info: SCNB (VDW SCALING)     2
Info: USING ARITHMETIC MEAN TO COMBINE L-J SIGMA PARAMETERS
Info: SUMMARY OF PARAMETERS:
Info: 71 BONDS
Info: 145 ANGLES
Info: 76 DIHEDRAL
Info: 0 IMPROPER
Info: 0 CROSSTERM
Info: 0 VDW
Info: 190 VDW_PAIRS
Info: 0 NBTHOLE_PAIRS
Info: STRUCTURE SUMMARY:
Info: 49394 ATOMS
Info: 49448 BONDS
Info: 8698 ANGLES
Info: 18780 DIHEDRALS
Info: 0 IMPROPERS
Info: 0 CROSSTERMS
Info: 0 EXCLUSIONS
Info: 2336 CONSTRAINTS
Info: 47058 RIGID BONDS
Info: 101124 DEGREES OF FREEDOM
Info: 17225 HYDROGEN GROUPS
Info: 4 ATOMS IN LARGEST HYDROGEN GROUP
Info: 17225 MIGRATION GROUPS
Info: 4 ATOMS IN LARGEST MIGRATION GROUP
Info: TOTAL MASS = 301478 amu
Info: TOTAL CHARGE = 1.00115e-05 e
Info: MASS DENSITY = 0.935846 g/cm^3
Info: ATOM DENSITY = 0.0923345 atoms/A^3
Info: ADDED 70656 IMPLICIT EXCLUSIONS
Info: NONBONDED TABLE R-SQUARED SPACING: 0.0625
Info: NONBONDED TABLE SIZE: 769 POINTS
Info: REMOVING COM VELOCITY 0 0 0
TCL: Minimizing for 100 steps
ETITLE: TS BOND ANGLE DIHED IMPRP ELECT VDW BOUNDARY MISC KINETIC TOTAL TEMP POTENTIAL TOTAL3 TEMPAVG PRESSURE GPRESSURE VOLUME PRESSAVG GPRESSAVG
ENERGY: 0 155.4176 1012.2698 2855.7272 0.0000 -154496.7910 207729.2052 0.0468 0.0000 0.0000 57255.8756 0.0000 57255.8756 57255.8756 0.0000 116350.2532 86546.1670 534946.2959 116350.2532 86546.1670
ENERGY: 20 304.7560 935.7912 2893.4663 0.0000 -158672.9412 17936.6590 143.9455 0.0000 0.0000 -136458.3231 0.0000 -136458.3231 -136458.3231 0.0000 16523.9383 -239.4563 534946.2959 16523.9383 -239.4563
ENERGY: 40 198.7472 799.5732 2896.9273 0.0000 -162811.4526 16417.9538 221.3031 0.0000 0.0000 -142276.9481 0.0000 -142276.9481 -142276.9481 0.0000 15011.2704 -2135.4697 534946.2959 15011.2704 -2135.4697
ENERGY: 60 130.5280 715.3439 2898.2166 0.0000 -167496.1597 15446.7535 315.2797 0.0000 0.0000 -147990.0381 0.0000 -147990.0381 -147990.0381 0.0000 13793.8831 -3799.3995 534946.2959 13793.8831 -3799.3995
ENERGY: 80 431.2710 765.6303 2904.3789 0.0000 -169937.5379 15121.1514 372.0124 0.0000 0.0000 -150343.0939 0.0000 -150343.0939 -150343.0939 0.0000 13270.3284 -4577.2476 534946.2959 13270.3284 -4577.2476
ENERGY: 100 129.7123 708.0643 2904.2782 0.0000 -171050.0680 15018.6535 384.2002 0.0000 0.0000 -151905.1595 0.0000 -151905.1595 -151905.1595 0.0000 13092.9125 -4843.6314 534946.2959 13092.9125 -4843.6314
TCL: Setting parameter constraintScaling to 5.0
TCL: Minimizing for 100 steps
ETITLE: TS BOND ANGLE DIHED IMPRP ELECT VDW BOUNDARY MISC KINETIC TOTAL TEMP POTENTIAL TOTAL3 TEMPAVG PRESSURE GPRESSURE VOLUME PRESSAVG GPRESSAVG
ENERGY: 100 129.7123 708.0643 2904.2782 0.0000 -171050.0680 15018.6535 192.1001 0.0000 0.0000 -152097.2596 0.0000 -152097.2596 -152097.2596 0.0000 13703.5078 -22944.4551 534946.2959 13703.5078 -22944.4551
ENERGY: 120 118.6812 680.2874 2909.9067 0.0000 -172396.3110 14830.1207 259.9548 0.0000 0.0000 -153597.3604 0.0000 -153597.3604 -153597.3604 0.0000 13320.9481 -4756.3063 534946.2959 13320.9481 -4756.3063
ENERGY: 140 109.1472 671.1466 2912.0863 0.0000 -174830.2487 14716.1440 337.7304 0.0000 0.0000 -156083.9941 0.0000 -156083.9941 -156083.9941 0.0000 12908.9615 -5423.1423 534946.2959 12908.9615 -5423.1423
ENERGY: 160 125.8511 667.1509 2914.1925 0.0000 -175967.0509 14735.1346 362.9189 0.0000 0.0000 -157161.8030 0.0000 -157161.8030 -157161.8030 0.0000 12806.8941 -5637.9244 534946.2959 12806.8941 -5637.9244
ENERGY: 180 303.4763 659.6830 2917.2967 0.0000 -177408.7788 14815.0201 395.3840 0.0000 0.0000 -158317.9187 0.0000 -158317.9187 -158317.9187 0.0000 12699.3130 -5894.9715 534946.2959 12699.3130 -5894.9715
ENERGY: 200 109.2066 628.4652 2923.3570 0.0000 -179543.5228 15071.1013 441.8726 0.0000 0.0000 -160369.5202 0.0000 -160369.5202 -160369.5202 0.0000 12659.9911 -6155.7847 534946.2959 12659.9911 -6155.7847
TCL: Setting parameter constraintScaling to 2.5
TCL: Minimizing for 100 steps
ETITLE: TS BOND ANGLE DIHED IMPRP ELECT VDW BOUNDARY MISC KINETIC TOTAL TEMP POTENTIAL TOTAL3 TEMPAVG PRESSURE GPRESSURE VOLUME PRESSAVG GPRESSAVG
ENERGY: 200 109.2066 628.4652 2923.3570 0.0000 -179543.5228 15071.1013 220.9363 0.0000 0.0000 -160590.4565 0.0000 -160590.4565 -160590.4565 0.0000 13208.4081 -25274.8967 534946.2959 13208.4081 -25274.8967
ENERGY: 220 168.9381 639.6142 2924.9475 0.0000 -180451.6422 15113.7426 291.1491 0.0000 0.0000 -161313.2506 0.0000 -161313.2506 -161313.2506 0.0000 13002.7169 -5918.0048 534946.2959 13002.7169 -5918.0048
ENERGY: 240 251.6608 643.1260 2921.4014 0.0000 -181893.9481 15358.7356 339.6538 0.0000 0.0000 -162379.3705 0.0000 -162379.3705 -162379.3705 0.0000 12963.7402 -6111.9436 534946.2959 12963.7402 -6111.9436
ENERGY: 260 174.1123 638.9249 2923.9038 0.0000 -184181.7928 15907.9224 437.7268 0.0000 0.0000 -164099.2026 0.0000 -164099.2026 -164099.2026 0.0000 13008.7597 -6310.2116 534946.2959 13008.7597 -6310.2116
ENERGY: 280 146.3677 648.7492 2918.2257 0.0000 -184714.1372 16069.2645 427.7689 0.0000 0.0000 -164503.7611 0.0000 -164503.7611 -164503.7611 0.0000 13128.1053 -6264.3726 534946.2959 13128.1053 -6264.3726
ENERGY: 300 229.7207 688.9781 2927.2918 0.0000 -186394.5619 16615.8098 425.9130 0.0000 0.0000 -165506.8485 0.0000 -165506.8485 -165506.8485 0.0000 13376.2565 -6206.7109 534946.2959 13376.2565 -6206.7109
TCL: Setting parameter constraintScaling to 1.25
TCL: Minimizing for 100 steps
ETITLE: TS BOND ANGLE DIHED IMPRP ELECT VDW BOUNDARY MISC KINETIC TOTAL TEMP POTENTIAL TOTAL3 TEMPAVG PRESSURE GPRESSURE VOLUME PRESSAVG GPRESSAVG
ENERGY: 300 229.7207 688.9781 2927.2918 0.0000 -186394.5619 16615.8098 212.9565 0.0000 0.0000 -165719.8050 0.0000 -165719.8050 -165719.8050 0.0000 13787.0524 -26287.7013 534946.2959 13787.0524 -26287.7013
ENERGY: 320 180.3100 666.9882 2910.7996 0.0000 -186914.5384 16726.4193 252.4826 0.0000 0.0000 -166177.5387 0.0000 -166177.5387 -166177.5387 0.0000 13767.1633 -5868.4490 534946.2959 13767.1633 -5868.4490
ENERGY: 340 201.3936 674.2015 2917.3295 0.0000 -188119.4824 17048.5502 327.3197 0.0000 0.0000 -166950.6878 0.0000 -166950.6878 -166950.6878 0.0000 13734.4213 -6017.9162 534946.2959 13734.4213 -6017.9162
ENERGY: 360 131.4279 641.3024 2905.4841 0.0000 -188811.0270 17282.3678 353.6531 0.0000 0.0000 -167496.7918 0.0000 -167496.7918 -167496.7918 0.0000 13822.0938 -6032.8564 534946.2959 13822.0938 -6032.8564
ENERGY: 380 212.0445 655.0570 2901.0787 0.0000 -189808.8516 17659.1518 352.1943 0.0000 0.0000 -168029.3253 0.0000 -168029.3253 -168029.3253 0.0000 14029.8957 -5940.7386 534946.2959 14029.8957 -5940.7386
ENERGY: 400 144.2315 637.0538 2906.8073 0.0000 -190432.9775 17887.6590 355.6004 0.0000 0.0000 -168501.6256 0.0000 -168501.6256 -168501.6256 0.0000 14123.1525 -5908.5904 534946.2959 14123.1525 -5908.5904
TCL: Setting parameter constraintScaling to 0.625
TCL: Minimizing for 100 steps
ETITLE: TS BOND ANGLE DIHED IMPRP ELECT VDW BOUNDARY MISC KINETIC TOTAL TEMP POTENTIAL TOTAL3 TEMPAVG PRESSURE GPRESSURE VOLUME PRESSAVG GPRESSAVG
ENERGY: 400 144.2315 637.0538 2906.8073 0.0000 -190432.9775 17887.6590 177.8002 0.0000 0.0000 -168679.4258 0.0000 -168679.4258 -168679.4258 0.0000 14404.6536 -26626.9582 534946.2959 14404.6536 -26626.9582
ENERGY: 420 186.4561 663.2159 2898.0545 0.0000 -191140.2844 18090.2808 221.6841 0.0000 0.0000 -169080.5930 0.0000 -169080.5930 -169080.5930 0.0000 14382.3143 -5730.7072 534946.2959 14382.3143 -5730.7072
ENERGY: 440 245.6160 670.5041 2891.4096 0.0000 -192207.7192 18449.7921 275.8119 0.0000 0.0000 -169674.5856 0.0000 -169674.5856 -169674.5856 0.0000 14438.3852 -5785.9557 534946.2959 14438.3852 -5785.9557
ENERGY: 460 154.5089 653.2806 2887.3211 0.0000 -192492.2430 18576.6878 263.4317 0.0000 0.0000 -169957.0130 0.0000 -169957.0130 -169957.0130 0.0000 14563.4146 -5692.9147 534946.2959 14563.4146 -5692.9147
ENERGY: 480 163.7852 658.1616 2895.7753 0.0000 -193870.7656 19133.7196 273.7511 0.0000 0.0000 -170745.5728 0.0000 -170745.5728 -170745.5728 0.0000 14869.6503 -5562.8941 534946.2959 14869.6503 -5562.8941
ENERGY: 500 142.1333 637.7753 2886.4161 0.0000 -194625.3140 19448.5924 295.3483 0.0000 0.0000 -171215.0485 0.0000 -171215.0485 -171215.0485 0.0000 14995.7459 -5505.5511 534946.2959 14995.7459 -5505.5511
TCL: Setting parameter constraintScaling to 0.3125
TCL: Minimizing for 100 steps
ETITLE: TS BOND ANGLE DIHED IMPRP ELECT VDW BOUNDARY MISC KINETIC TOTAL TEMP POTENTIAL TOTAL3 TEMPAVG PRESSURE GPRESSURE VOLUME PRESSAVG GPRESSAVG
ENERGY: 500 142.1333 637.7753 2886.4161 0.0000 -194625.3140 19448.5924 147.6742 0.0000 0.0000 -171362.7227 0.0000 -171362.7227 -171362.7227 0.0000 15190.5574 -26824.4816 534946.2959 15190.5574 -26824.4816
ENERGY: 520 164.8255 663.2077 2875.4669 0.0000 -195182.9674 19612.0382 173.8555 0.0000 0.0000 -171693.5735 0.0000 -171693.5735 -171693.5735 0.0000 15217.1115 -5356.2162 534946.2959 15217.1115 -5356.2162
ENERGY: 540 197.8034 679.4124 2880.7991 0.0000 -195839.2769 19837.5967 201.9132 0.0000 0.0000 -172041.7520 0.0000 -172041.7520 -172041.7520 0.0000 15148.9396 -5454.8293 534946.2959 15148.9396 -5454.8293
ENERGY: 560 156.7226 665.7657 2870.4779 0.0000 -196164.3241 19961.0598 204.0953 0.0000 0.0000 -172306.2027 0.0000 -172306.2027 -172306.2027 0.0000 15299.2512 -5374.6765 534946.2959 15299.2512 -5374.6765
ENERGY: 580 194.7890 673.6592 2893.0936 0.0000 -197411.8371 20517.1239 199.7653 0.0000 0.0000 -172933.4060 0.0000 -172933.4060 -172933.4060 0.0000 15711.2632 -5128.4513 534946.2959 15711.2632 -5128.4513
ENERGY: 600 164.3325 697.8005 2899.2776 0.0000 -197994.7977 20788.7118 209.4716 0.0000 0.0000 -173235.2037 0.0000 -173235.2037 -173235.2037 0.0000 15823.1406 -5077.4479 534946.2959 15823.1406 -5077.4479
TCL: Setting parameter constraintScaling to 0.15625
TCL: Minimizing for 100 steps
ETITLE: TS BOND ANGLE DIHED IMPRP ELECT VDW BOUNDARY MISC KINETIC TOTAL TEMP POTENTIAL TOTAL3 TEMPAVG PRESSURE GPRESSURE VOLUME PRESSAVG GPRESSAVG
ENERGY: 600 164.3325 697.8005 2899.2776 0.0000 -197994.7977 20788.7118 104.7358 0.0000 0.0000 -173339.9395 0.0000 -173339.9395 -173339.9395 0.0000 15945.7496 -26874.0257 534946.2959 15945.7496 -26874.0257
ENERGY: 620 324.1498 694.6628 2862.3970 0.0000 -198197.2616 20792.7081 114.1033 0.0000 0.0000 -173409.2407 0.0000 -173409.2407 -173409.2407 0.0000 15826.8535 -5072.7661 534946.2959 15826.8535 -5072.7661
ENERGY: 640 164.3322 646.8951 2857.0219 0.0000 -198481.1408 20854.8055 124.5892 0.0000 0.0000 -173833.4969 0.0000 -173833.4969 -173833.4969 0.0000 15808.2578 -5128.8019 534946.2959 15808.2578 -5128.8019
ENERGY: 660 295.3577 738.3945 2859.9121 0.0000 -198971.3805 21040.2929 131.4891 0.0000 0.0000 -173905.9343 0.0000 -173905.9343 -173905.9343 0.0000 15906.4787 -5095.1491 534946.2959 15906.4787 -5095.1491
ENERGY: 680 171.3507 663.4526 2857.4417 0.0000 -199222.2816 21132.5207 132.5113 0.0000 0.0000 -174265.0046 0.0000 -174265.0046 -174265.0046 0.0000 15974.1255 -5040.6003 534946.2959 15974.1255 -5040.6003
ENERGY: 700 154.7267 688.0534 2881.3930 0.0000 -200465.1289 21675.7976 146.1035 0.0000 0.0000 -174919.0546 0.0000 -174919.0546 -174919.0546 0.0000 16322.1406 -4855.6458 534946.2959 16322.1406 -4855.6458
TCL: Setting parameter constraintScaling to 0.078125
TCL: Minimizing for 100 steps
ETITLE: TS BOND ANGLE DIHED IMPRP ELECT VDW BOUNDARY MISC KINETIC TOTAL TEMP POTENTIAL TOTAL3 TEMPAVG PRESSURE GPRESSURE VOLUME PRESSAVG GPRESSAVG
ENERGY: 700 154.7267 688.0534 2881.3930 0.0000 -200465.1289 21675.7976 73.0518 0.0000 0.0000 -174992.1064 0.0000 -174992.1064 -174992.1064 0.0000 16395.1162 -27010.1768 534946.2959 16395.1162 -27010.1768
ENERGY: 720 162.6765 660.0924 2846.5471 0.0000 -200642.7854 21680.5317 77.8799 0.0000 0.0000 -175215.0579 0.0000 -175215.0579 -175215.0579 0.0000 16297.2512 -4883.2778 534946.2959 16297.2512 -4883.2778
ENERGY: 740 177.0060 668.1533 2839.9564 0.0000 -200921.0866 21760.6305 84.2275 0.0000 0.0000 -175391.1129 0.0000 -175391.1129 -175391.1129 0.0000 16278.2064 -4947.9561 534946.2959 16278.2064 -4947.9561
ENERGY: 760 176.8262 668.0516 2836.6543 0.0000 -201449.4811 21950.2246 89.4537 0.0000 0.0000 -175728.2707 0.0000 -175728.2707 -175728.2707 0.0000 16362.7059 -4919.7098 534946.2959 16362.7059 -4919.7098
ENERGY: 780 164.8452 655.5885 2832.7435 0.0000 -201773.1685 22075.6235 91.2231 0.0000 0.0000 -175953.1447 0.0000 -175953.1447 -175953.1447 0.0000 16433.7525 -4890.2674 534946.2959 16433.7525 -4890.2674
ENERGY: 800 170.9001 680.4382 2834.1939 0.0000 -202024.7699 22191.3226 92.2801 0.0000 0.0000 -176055.6351 0.0000 -176055.6351 -176055.6351 0.0000 16509.3244 -4851.4636 534946.2959 16509.3244 -4851.4636
TCL: Setting parameter constraintScaling to 0.0390625
TCL: Minimizing for 100 steps
ETITLE: TS BOND ANGLE DIHED IMPRP ELECT VDW BOUNDARY MISC KINETIC TOTAL TEMP POTENTIAL TOTAL3 TEMPAVG PRESSURE GPRESSURE VOLUME PRESSAVG GPRESSAVG
ENERGY: 800 170.9001 680.4382 2834.1939 0.0000 -202024.7699 22191.3226 46.1400 0.0000 0.0000 -176101.7751 0.0000 -176101.7751 -176101.7751 0.0000 16550.6323 -27219.5498 534946.2959 16550.6323 -27219.5498
ENERGY: 820 168.9018 654.3167 2829.8343 0.0000 -202180.1066 22236.3701 47.1109 0.0000 0.0000 -176243.5728 0.0000 -176243.5728 -176243.5728 0.0000 16579.7427 -4795.8957 534946.2959 16579.7427 -4795.8957
ENERGY: 840 162.9626 653.7333 2826.6441 0.0000 -202684.6429 22434.8303 49.9427 0.0000 0.0000 -176556.5299 0.0000 -176556.5299 -176556.5299 0.0000 16681.2906 -4753.4311 534946.2959 16681.2906 -4753.4311
ENERGY: 860 172.4332 656.4278 2824.5078 0.0000 -203044.2635 22597.4976 51.8848 0.0000 0.0000 -176741.5124 0.0000 -176741.5124 -176741.5124 0.0000 16749.8891 -4724.4096 534946.2959 16749.8891 -4724.4096
ENERGY: 880 164.2764 665.9939 2822.7331 0.0000 -203716.6495 22875.4175 54.8710 0.0000 0.0000 -177133.3575 0.0000 -177133.3575 -177133.3575 0.0000 16903.2629 -4652.6514 534946.2959 16903.2629 -4652.6514
ENERGY: 900 162.3595 650.9166 2820.1253 0.0000 -203772.3995 22895.0530 55.3510 0.0000 0.0000 -177188.5941 0.0000 -177188.5941 -177188.5941 0.0000 16905.3747 -4652.1415 534946.2959 16905.3747 -4652.1415
TCL: Setting parameter constraintScaling to 0.01953125
TCL: Minimizing for 100 steps
ETITLE: TS BOND ANGLE DIHED IMPRP ELECT VDW BOUNDARY MISC KINETIC TOTAL TEMP POTENTIAL TOTAL3 TEMPAVG PRESSURE GPRESSURE VOLUME PRESSAVG GPRESSAVG
ENERGY: 900 162.3595 650.9166 2820.1253 0.0000 -203772.3995 22895.0530 27.6755 0.0000 0.0000 -177216.2696 0.0000 -177216.2696 -177216.2696 0.0000 16928.6796 -27262.5023 534946.2959 16928.6796 -27262.5023
ENERGY: 920 172.1238 653.7015 2818.1076 0.0000 -203960.4063 22972.4224 28.2771 0.0000 0.0000 -177315.7739 0.0000 -177315.7739 -177315.7739 0.0000 16971.4901 -4616.0768 534946.2959 16971.4901 -4616.0768
ENERGY: 940 162.8443 651.0963 2816.1279 0.0000 -204289.7940 23108.9134 29.3562 0.0000 0.0000 -177521.4558 0.0000 -177521.4558 -177521.4558 0.0000 17028.8705 -4588.1989 534946.2959 17028.8705 -4588.1989
ENERGY: 960 163.4992 649.6753 2814.8714 0.0000 -204357.9595 23140.3603 29.5130 0.0000 0.0000 -177560.0403 0.0000 -177560.0403 -177560.0403 0.0000 17050.3018 -4578.9875 534946.2959 17050.3018 -4578.9875
ENERGY: 980 187.0940 661.9373 2812.4350 0.0000 -204976.2193 23409.9792 31.2897 0.0000 0.0000 -177873.4841 0.0000 -177873.4841 -177873.4841 0.0000 17209.0144 -4500.6398 534946.2959 17209.0144 -4500.6398
ENERGY: 1000 158.8873 650.7650 2811.3844 0.0000 -205262.0736 23544.4630 32.2002 0.0000 0.0000 -178064.3739 0.0000 -178064.3739 -178064.3739 0.0000 17264.7089 -4469.9937 534946.2959 17264.7089 -4469.9937
TCL: Setting parameter constraintScaling to 0
TCL: Minimizing for 5000 steps
ETITLE: TS BOND ANGLE DIHED IMPRP ELECT VDW BOUNDARY MISC KINETIC TOTAL TEMP POTENTIAL TOTAL3 TEMPAVG PRESSURE GPRESSURE VOLUME PRESSAVG GPRESSAVG
ENERGY: 1000 158.8873 650.7650 2811.3844 0.0000 -205262.0737 23544.4630 0.0000 0.0000 0.0000 -178096.5741 0.0000 -178096.5741 -178096.5741 0.0000 17290.5076 -27256.2578 534946.2959 17290.5076 -27256.2578
ENERGY: 2000 169.8448 662.5479 2805.0355 0.0000 -214366.1472 27620.0899 0.0000 0.0000 0.0000 -183108.6292 0.0000 -183108.6292 -183108.6292 0.0000 19438.1719 -3322.1468 534946.2959 19438.1719 -3322.1468
ENERGY: 3000 167.7317 667.0290 2795.9466 0.0000 -217485.7853 28923.6938 0.0000 0.0000 0.0000 -184931.3843 0.0000 -184931.3843 -184931.3843 0.0000 20139.2820 -2945.3840 534946.2959 20139.2820 -2945.3840
ENERGY: 4000 165.4229 665.2528 2790.5373 0.0000 -218757.1633 29460.1263 0.0000 0.0000 0.0000 -185675.8241 0.0000 -185675.8241 -185675.8241 0.0000 20423.3785 -2789.1923 534946.2959 20423.3785 -2789.1923
ENERGY: 5000 166.4074 666.1285 2784.8487 0.0000 -219523.7191 29766.9641 0.0000 0.0000 0.0000 -186139.3704 0.0000 -186139.3704 -186139.3704 0.0000 20574.9071 -2716.1495 534946.2959 20574.9071 -2716.1495
ENERGY: 6000 166.5714 666.6708 2783.5058 0.0000 -219884.2457 29860.5728 0.0000 0.0000 0.0000 -186406.9249 0.0000 -186406.9249 -186406.9249 0.0000 20624.8024 -2696.3305 534946.2959 20624.8024 -2696.3305
