Info: SIMULATION PARAMETERS:
Info: TIMESTEP               1
Info: NUMBER OF STEPS        0
Info: STEPS PER CYCLE        10
Info: PERIODIC CELL BASIS 1  72.449 0 0
Info: PERIODIC CELL BASIS 2  0 93.247 0
Info: PERIODIC CELL BASIS 3  0 0 79.185
Info: PERIODIC CELL CENTER   -0.248 -0.156 -0.047
Info: WRAPPING WATERS AROUND PERIODIC BOUNDARIES ON OUTPUT.
Info: WRAPPING ALL CLUSTERS AROUND PERIODIC BOUNDARIES ON OUTPUT.
Info: FIRST LDB TIMESTEP     50
Info: LAST LDB TIMESTEP     -1
Info: HOM BACKGROUND SCALING 1
Info: PME BACKGROUND SCALING 1
Info: MIN ATOMS PER PATCH    40
Info: VELOCITY FILE          ../replicas/rep81/equilibration/eq1.vel
Info: CENTER OF MASS MOVING INITIALLY? NO
Info: DIELECTRIC             1
Info: EXCLUDE                SCALED ONE-FOUR
Info: 1-4 ELECTROSTATICS SCALED BY 0.833333
Info: MODIFIED 1-4 VDW PARAMETERS WILL BE USED
Info: DCD FILENAME           ../replicas/rep81/equilibration/eq2.dcd
Info: DCD FREQUENCY          5000
Info: DCD FIRST STEP         5000
Info: DCD FILE WILL CONTAIN UNIT CELL DATA
Info: XST FILENAME           ../replicas/rep81/equilibration/eq2.xst
Info: XST FREQUENCY          5000
Info: NO VELOCITY DCD OUTPUT
Info: NO FORCE DCD OUTPUT
Info: OUTPUT FILENAME        ../replicas/rep81/equilibration/eq2
Info: RESTART FILENAME       ../replicas/rep81/equilibration/eq2.restart
Info: RESTART FREQUENCY      5000
Info: BINARY RESTART FILES WILL BE USED
Info: SWITCHING ACTIVE
Info: SWITCHING ON           10
Info: SWITCHING OFF          12
Info: PAIRLIST DISTANCE      13.5
Info: PAIRLIST SHRINK RATE   0.01
Info: PAIRLIST GROW RATE     0.01
Info: PAIRLIST TRIGGER       0.3
Info: PAIRLISTS PER CYCLE    2
Info: PAIRLISTS ENABLED
Info: MARGIN                 0.48
Info: HYDROGEN GROUP CUTOFF  2.5
Info: PATCH DIMENSION        16.48
Info: ENERGY OUTPUT STEPS    500
Info: CROSSTERM ENERGY INCLUDED IN DIHEDRAL
Info: TIMING OUTPUT STEPS    5000
Info: PRESSURE OUTPUT STEPS  500
Info: HARMONIC CONSTRAINTS ACTIVE
Info: HARMONIC CONS EXP      2
Info: HARMONIC CONS SCALING  10
Info: LANGEVIN DYNAMICS ACTIVE
Info: LANGEVIN TEMPERATURE   300
Info: LANGEVIN USING BBK INTEGRATOR
Info: LANGEVIN DAMPING COEFFICIENT IS 5 INVERSE PS
Info: LANGEVIN DYNAMICS NOT APPLIED TO HYDROGENS
Info: BERENDSEN PRESSURE COUPLING ACTIVE
Info:     TARGET PRESSURE IS 1 BAR
Info:     COMPRESSIBILITY ESTIMATE IS 4.57e-05 BAR^(-1)
Info:     RELAXATION TIME IS 100 FS
Info:     APPLIED EVERY 2 STEPS
Info:     PRESSURE CONTROL IS GROUP-BASED
Info:       CELL FLUCTUATION IS ISOTROPIC
Info: PARTICLE MESH EWALD (PME) ACTIVE
Info: PME TOLERANCE               1e-06
Info: PME EWALD COEFFICIENT       0.257952
Info: PME INTERPOLATION ORDER     4
Info: PME GRID DIMENSIONS         80 96 80
Info: PME MAXIMUM GRID SPACING    1
Info: FULL ELECTROSTATIC EVALUATION FREQUENCY      2
Info: USING VERLET I (r-RESPA) MTS SCHEME.
Info: C1 SPLITTING OF LONG RANGE ELECTROSTATICS
Info: PLACING ATOMS IN PATCHES BY HYDROGEN GROUPS
Info: RIGID BONDS TO HYDROGEN : WATER
Info:         ERROR TOLERANCE : 1e-05
Info:          MAX ITERATIONS : 100
Info: RIGID WATER USING SETTLE ALGORITHM
Info: RANDOM NUMBER SEED     1503693790
Info: USE HYDROGEN BONDS?    NO
Info: Using AMBER format force field!
Info: AMBER PARM FILE        ../build/complex.top
Info: COORDINATE PDB         ../replicas/rep81/equilibration/eq1.coor
Info: Exclusions in PARM file will be ignored!
Info: SCNB (VDW SCALING)     2
Info: USING ARITHMETIC MEAN TO COMBINE L-J SIGMA PARAMETERS
Info: SUMMARY OF PARAMETERS:
Info: 71 BONDS
Info: 145 ANGLES
Info: 76 DIHEDRAL
Info: 0 IMPROPER
Info: 0 CROSSTERM
Info: 0 VDW
Info: 190 VDW_PAIRS
Info: 0 NBTHOLE_PAIRS
Info: STRUCTURE SUMMARY:
Info: 49394 ATOMS
Info: 49448 BONDS
Info: 8698 ANGLES
Info: 18780 DIHEDRALS
Info: 0 IMPROPERS
Info: 0 CROSSTERMS
Info: 0 EXCLUSIONS
Info: 2336 CONSTRAINTS
Info: 44667 RIGID BONDS
Info: 103515 DEGREES OF FREEDOM
Info: 17225 HYDROGEN GROUPS
Info: 4 ATOMS IN LARGEST HYDROGEN GROUP
Info: 17225 MIGRATION GROUPS
Info: 4 ATOMS IN LARGEST MIGRATION GROUP
Info: TOTAL MASS = 301478 amu
Info: TOTAL CHARGE = 1.00115e-05 e
Info: MASS DENSITY = 0.935846 g/cm^3
Info: ATOM DENSITY = 0.0923345 atoms/A^3
Info: ADDED 70656 IMPLICIT EXCLUSIONS
Info: NONBONDED TABLE R-SQUARED SPACING: 0.0625
Info: NONBONDED TABLE SIZE: 769 POINTS
Info: REMOVING COM VELOCITY -0.0327936 -0.0183199 0.00855292
TCL: Running for 5000 steps
ETITLE: TS BOND ANGLE DIHED IMPRP ELECT VDW BOUNDARY MISC KINETIC TOTAL TEMP POTENTIAL TOTAL3 TEMPAVG PRESSURE GPRESSURE VOLUME PRESSAVG GPRESSAVG
ENERGY: 0 390.0630 1221.4437 2927.5950 0.0000 -212587.8919 29487.9321 0.0000 0.0000 10004.7375 -168556.1206 97.2731 -178560.8581 -168546.4382 97.2731 -2370.9289 -2468.8593 534946.2959 -2370.9289 -2468.8593
ENERGY: 1000 1265.8725 1974.5417 3140.6555 0.0000 -193293.3910 26169.7041 780.4292 0.0000 23945.3217 -136016.8663 232.8133 -159962.1880 -135998.5785 217.9473 -148.4670 -25.5306 523073.3374 -2.3137 -2.2496
ENERGY: 2000 1469.4110 2208.7576 3132.7584 0.0000 -184189.2088 23200.2319 814.3921 0.0000 27810.3923 -125553.2654 270.3922 -153363.6578 -125511.7330 263.9902 -91.5100 -71.9887 515514.6908 -26.8009 -26.4798
ENERGY: 3000 1532.2821 2216.9795 3149.7308 0.0000 -179018.2672 21668.5048 774.7936 0.0000 29621.9577 -120054.0187 288.0055 -149675.9764 -120005.3848 285.6893 -54.7356 24.3931 511214.6404 -3.9800 -4.4078
ENERGY: 4000 1585.0834 2244.8387 3126.3420 0.0000 -176745.6617 20744.4901 820.6620 0.0000 30498.4881 -117725.7575 296.5278 -148224.2456 -117688.2648 293.1505 37.3955 46.4298 506267.8871 -27.2022 -27.5663
ENERGY: 5000 1599.0753 2297.7913 3148.6093 0.0000 -175371.3213 20101.2926 790.6398 0.0000 30639.3703 -116794.5428 297.8976 -147433.9130 -116741.7909 297.7317 -99.5711 -28.6769 506341.8900 10.1631 10.5000
TCL: Setting parameter constraintScaling to 5.0
TCL: Running for 5000 steps
ETITLE: TS BOND ANGLE DIHED IMPRP ELECT VDW BOUNDARY MISC KINETIC TOTAL TEMP POTENTIAL TOTAL3 TEMPAVG PRESSURE GPRESSURE VOLUME PRESSAVG GPRESSAVG
ENERGY: 5000 1599.0753 2297.7913 3148.6093 0.0000 -175371.3213 20101.2926 395.3199 0.0000 30637.3102 -117191.9228 297.8775 -147829.2329 -117145.0764 297.8775 -209.4072 -141.5015 506341.8900 -209.4072 -141.5015
ENERGY: 6000 1627.1020 2281.0556 3142.4575 0.0000 -175229.3313 19967.7242 652.0627 0.0000 30766.9369 -116791.9923 299.1378 -147558.9293 -116755.2749 299.5106 -140.1395 -43.6071 506094.7387 7.9065 8.0827
ENERGY: 7000 1594.1538 2276.3814 3179.6357 0.0000 -175443.0213 20092.7771 663.4741 0.0000 31048.4336 -116588.1657 301.8748 -147636.5993 -116544.2292 299.4026 -145.4828 -37.4214 504005.2298 -1.3595 -1.3145
ENERGY: 8000 1580.7370 2264.2845 3184.2123 0.0000 -175643.6108 20365.8834 624.4462 0.0000 31101.4398 -116522.6076 302.3901 -147624.0474 -116476.0541 300.0338 -89.3760 -14.5929 503843.0970 3.4064 3.5764
ENERGY: 9000 1683.4243 2282.9927 3175.5267 0.0000 -175691.8408 20330.9560 650.4702 0.0000 30924.2610 -116644.2099 300.6675 -147568.4709 -116596.9503 299.4283 -58.7321 12.8246 503123.6230 -6.9734 -7.1761
ENERGY: 10000 1530.0023 2313.6271 3180.6315 0.0000 -175468.6732 20085.5904 668.1070 0.0000 30982.2285 -116708.4863 301.2311 -147690.7148 -116661.4035 299.4415 -38.2954 -4.2637 501852.0318 -15.3805 -15.2420
TCL: Setting parameter constraintScaling to 2.5
TCL: Running for 5000 steps
ETITLE: TS BOND ANGLE DIHED IMPRP ELECT VDW BOUNDARY MISC KINETIC TOTAL TEMP POTENTIAL TOTAL3 TEMPAVG PRESSURE GPRESSURE VOLUME PRESSAVG GPRESSAVG
ENERGY: 10000 1530.0023 2313.6271 3180.6315 0.0000 -175468.6732 20085.5904 334.0535 0.0000 30980.2162 -117044.5521 301.2115 -148024.7683 -117001.6085 301.2115 -74.2974 -43.3747 501852.0318 -74.2974 -43.3747
ENERGY: 11000 1639.8210 2339.1841 3223.6058 0.0000 -175322.6414 20004.2142 506.6363 0.0000 30941.2995 -116667.8805 300.8331 -147609.1800 -116625.0870 300.0964 1.6042 71.2556 500878.7445 0.3296 0.2717
ENERGY: 12000 1633.2915 2301.7360 3196.0623 0.0000 -175895.4581 20358.6358 533.7002 0.0000 30938.5063 -116933.5259 300.8060 -147872.0322 -116898.9454 300.5625 -102.7716 3.6273 500811.1857 0.1593 0.1556
ENERGY: 13000 1622.1053 2389.8804 3194.7446 0.0000 -175644.4022 20003.8546 502.2531 0.0000 30872.9734 -117058.5909 300.1688 -147931.5642 -117006.9183 299.3621 -18.8705 -3.7884 500679.1682 -5.0119 -4.7217
ENERGY: 14000 1632.5886 2294.5801 3174.7796 0.0000 -175852.8760 20280.1004 511.3948 0.0000 30811.2681 -117148.1645 299.5689 -147959.4326 -117099.7579 298.7501 -82.7000 -37.4242 499758.5414 -20.9570 -21.2175
ENERGY: 15000 1608.6390 2376.6726 3185.7157 0.0000 -175358.6782 19845.6618 516.5094 0.0000 30617.2753 -117208.2043 297.6827 -147825.4796 -117159.8009 298.9567 25.5441 65.6139 500687.9899 6.2015 6.1166
TCL: Setting parameter constraintScaling to 1.25
TCL: Running for 5000 steps
ETITLE: TS BOND ANGLE DIHED IMPRP ELECT VDW BOUNDARY MISC KINETIC TOTAL TEMP POTENTIAL TOTAL3 TEMPAVG PRESSURE GPRESSURE VOLUME PRESSAVG GPRESSAVG
ENERGY: 15000 1608.6390 2376.6726 3185.7157 0.0000 -175358.6781 19845.6618 258.2547 0.0000 30615.2262 -117468.5081 297.6628 -148083.7343 -117425.1923 297.6628 -79.8345 -45.3932 500687.9899 -79.8345 -45.3932
ENERGY: 16000 1591.1927 2328.8003 3210.2346 0.0000 -176179.3120 20167.6327 396.0018 0.0000 30796.3865 -117689.0634 299.4242 -148485.4499 -117641.1516 298.8811 -107.3332 -75.5424 498322.4490 -2.6427 -2.4294
ENERGY: 17000 1597.4442 2379.8224 3192.6368 0.0000 -175928.8759 20112.9740 394.2570 0.0000 30595.4005 -117656.3410 297.4700 -148251.7415 -117599.1254 298.4495 -60.0170 23.1144 498335.9216 5.9140 5.4269
ENERGY: 18000 1684.5867 2374.2931 3219.1724 0.0000 -176070.1058 20027.5942 408.5323 0.0000 30717.0768 -117638.8504 298.6531 -148355.9272 -117591.3316 299.2836 -43.4952 -23.3725 497766.9973 -0.5530 -0.9217
ENERGY: 19000 1599.5242 2334.3971 3192.4747 0.0000 -175745.6709 20058.1653 393.4989 0.0000 30646.0502 -117521.5605 297.9625 -148167.6107 -117475.5319 299.1690 -81.6196 34.5513 498698.0410 7.9541 8.1011
ENERGY: 20000 1614.5742 2405.9119 3218.1372 0.0000 -175498.2265 20015.3250 410.4019 0.0000 30699.8953 -117133.9810 298.4860 -147833.8762 -117086.3756 300.1091 53.9508 -90.8546 498380.8872 -0.7550 -0.5960
TCL: Setting parameter constraintScaling to 0.625
TCL: Running for 5000 steps
ETITLE: TS BOND ANGLE DIHED IMPRP ELECT VDW BOUNDARY MISC KINETIC TOTAL TEMP POTENTIAL TOTAL3 TEMPAVG PRESSURE GPRESSURE VOLUME PRESSAVG GPRESSAVG
ENERGY: 20000 1614.5742 2405.9119 3218.1372 0.0000 -175498.2265 20015.3250 205.2010 0.0000 30697.8533 -117341.2238 298.4662 -148039.0772 -117297.3780 298.4662 49.0542 -91.2463 498380.8872 49.0542 -91.2463
ENERGY: 21000 1637.4062 2420.1055 3260.9908 0.0000 -175866.1462 19954.7725 307.3876 0.0000 30735.5474 -117549.9362 298.8327 -148285.4837 -117498.4073 299.2386 -118.1937 -27.1198 498874.0710 3.3462 3.0124
ENERGY: 22000 1624.7449 2373.2203 3175.9309 0.0000 -175851.5506 20149.9724 313.7965 0.0000 30800.9387 -117412.9471 299.4684 -148213.8858 -117361.3753 299.7806 -4.7581 27.3907 498957.9194 12.0474 11.7798
ENERGY: 23000 1645.8847 2367.8561 3188.8737 0.0000 -175869.9254 20159.9897 317.4387 0.0000 30762.7412 -117427.1413 299.0970 -148189.8824 -117383.9007 300.4016 -50.3976 -67.3506 499749.4998 3.4910 2.9757
ENERGY: 24000 1684.4336 2390.2270 3193.5558 0.0000 -175311.9433 19942.3413 308.8058 0.0000 30720.4228 -117072.1568 298.6856 -147792.5797 -117033.7281 299.0021 -38.8542 -11.4384 500313.7705 7.6731 8.2772
ENERGY: 25000 1623.6156 2474.9725 3232.0322 0.0000 -175257.0453 19943.3928 320.8407 0.0000 31148.5767 -116513.6148 302.8484 -147662.1915 -116468.2219 301.3301 -37.4368 -60.9237 499942.0305 -5.4312 -5.2661
TCL: Setting parameter constraintScaling to 0.3125
TCL: Running for 5000 steps
ETITLE: TS BOND ANGLE DIHED IMPRP ELECT VDW BOUNDARY MISC KINETIC TOTAL TEMP POTENTIAL TOTAL3 TEMPAVG PRESSURE GPRESSURE VOLUME PRESSAVG GPRESSAVG
ENERGY: 25000 1623.6156 2474.9725 3232.0322 0.0000 -175257.0453 19943.3928 160.4204 0.0000 31146.5083 -116676.1036 302.8283 -147822.6119 -116632.3142 302.8283 -46.8005 -69.8107 499942.0305 -46.8005 -69.8107
ENERGY: 26000 1665.5990 2350.8963 3219.9016 0.0000 -175245.1909 19779.0439 242.4252 0.0000 31004.5322 -116982.7928 301.4479 -147987.3250 -116926.9398 301.2957 -94.3485 -28.1920 499144.5424 -5.6874 -5.2411
ENERGY: 27000 1683.0708 2356.3020 3198.1603 0.0000 -175917.1887 20374.3027 265.5162 0.0000 30798.8102 -117241.0265 299.4477 -148039.8367 -117201.8839 300.4881 -97.1882 -120.3730 500248.9011 0.6580 -0.0609
ENERGY: 28000 1713.2528 2412.1035 3219.0696 0.0000 -175582.4416 19941.7162 262.0140 0.0000 31024.8281 -117009.4572 301.6452 -148034.2853 -116960.9006 300.5708 -36.8625 -2.6499 499180.2823 5.0620 4.9890
ENERGY: 29000 1714.7492 2423.9480 3238.1082 0.0000 -175631.2516 19968.5416 243.1208 0.0000 30673.0154 -117369.7683 298.2247 -148042.7837 -117321.5194 300.5655 -92.0213 -9.1203 498282.4628 -6.0483 -5.5619
ENERGY: 30000 1570.0012 2442.7413 3260.8291 0.0000 -175977.1273 20163.0285 246.0418 0.0000 30996.6800 -117297.8055 301.3716 -148294.4855 -117255.5517 299.7558 -71.6913 -67.8428 497420.1811 -3.1481 -3.3259
TCL: Setting parameter constraintScaling to 0.15625
TCL: Running for 5000 steps
ETITLE: TS BOND ANGLE DIHED IMPRP ELECT VDW BOUNDARY MISC KINETIC TOTAL TEMP POTENTIAL TOTAL3 TEMPAVG PRESSURE GPRESSURE VOLUME PRESSAVG GPRESSAVG
ENERGY: 30000 1570.0012 2442.7413 3260.8291 0.0000 -175977.1273 20163.0285 123.0209 0.0000 30994.6298 -117422.8766 301.3516 -148417.5064 -117381.6438 301.3516 -75.8838 -75.1229 497420.1811 -75.8838 -75.1229
ENERGY: 31000 1643.9928 2374.2444 3224.4634 0.0000 -176124.7833 20186.1627 194.0740 0.0000 30975.4793 -117526.3667 301.1654 -148501.8460 -117484.8625 299.4470 38.7546 92.8139 497950.2072 8.5669 8.6147
ENERGY: 32000 1584.8180 2421.2555 3241.4691 0.0000 -176249.8091 20231.8587 203.0722 0.0000 30777.4411 -117789.8945 299.2400 -148567.3357 -117735.9362 298.9164 23.6206 -14.2340 496240.7068 -5.6657 -5.4123
ENERGY: 33000 1686.0104 2381.7549 3241.2459 0.0000 -175543.0722 20093.0700 208.5938 0.0000 31050.1573 -116882.2399 301.8915 -147932.3972 -116833.2603 300.9129 9.2345 137.7757 496288.1330 -10.9877 -10.5496
ENERGY: 34000 1557.4196 2363.4072 3238.0722 0.0000 -175071.7183 19698.1516 201.5331 0.0000 30785.4869 -117227.6477 299.3182 -148013.1345 -117184.3447 300.2995 26.9476 94.2149 497356.4694 8.3967 8.3689
ENERGY: 35000 1655.1628 2402.6248 3235.1937 0.0000 -175826.3117 20050.4031 199.4933 0.0000 30998.2717 -117285.1623 301.3870 -148283.4340 -117249.7529 300.4234 -146.3133 -26.1382 497290.1775 9.5886 10.2768
TCL: Setting parameter constraintScaling to 0.078125
TCL: Running for 5000 steps
ETITLE: TS BOND ANGLE DIHED IMPRP ELECT VDW BOUNDARY MISC KINETIC TOTAL TEMP POTENTIAL TOTAL3 TEMPAVG PRESSURE GPRESSURE VOLUME PRESSAVG GPRESSAVG
ENERGY: 35000 1655.1628 2402.6248 3235.1937 0.0000 -175826.3117 20050.4031 99.7467 0.0000 30996.2230 -117386.9577 301.3671 -148383.1807 -117342.7659 301.3671 -154.5729 -39.1232 497290.1775 -154.5729 -39.1232
ENERGY: 36000 1659.3925 2353.5025 3222.3082 0.0000 -175317.3455 19864.2769 147.9800 0.0000 30875.9971 -117193.8883 300.1982 -148069.8854 -117154.0819 301.1669 -167.4299 -87.7689 497763.0770 7.4282 7.2753
ENERGY: 37000 1621.7915 2396.1930 3183.2118 0.0000 -175335.8336 19752.7976 151.8004 0.0000 31214.4187 -117015.6205 303.4886 -148230.0392 -116973.2843 301.5801 38.8108 41.3780 496652.6770 -6.9407 -6.8746
ENERGY: 38000 1639.0089 2440.5512 3214.6690 0.0000 -175812.1421 19939.6121 157.5496 0.0000 30913.7071 -117507.0441 300.5648 -148420.7513 -117469.8618 299.8143 10.0323 28.0905 497248.5796 9.7943 9.4733
ENERGY: 39000 1593.5806 2431.7264 3182.8749 0.0000 -176081.0774 20179.7589 165.7518 0.0000 30739.8054 -117787.5795 298.8741 -148527.3849 -117740.3706 299.7846 -9.4151 39.8164 497627.4203 4.6483 3.7394
ENERGY: 40000 1617.5910 2360.6286 3204.9334 0.0000 -175919.5588 19988.7887 163.6851 0.0000 30768.4409 -117815.4911 299.1525 -148583.9321 -117772.4137 298.9126 -12.5240 29.7331 496301.8128 -8.6912 -8.2255
TCL: Setting parameter constraintScaling to 0.0390625
TCL: Running for 5000 steps
ETITLE: TS BOND ANGLE DIHED IMPRP ELECT VDW BOUNDARY MISC KINETIC TOTAL TEMP POTENTIAL TOTAL3 TEMPAVG PRESSURE GPRESSURE VOLUME PRESSAVG GPRESSAVG
ENERGY: 40000 1617.5910 2360.6286 3204.9334 0.0000 -175919.5588 19988.7887 81.8425 0.0000 30766.4122 -117899.3624 299.1327 -148665.7746 -117854.0702 299.1327 -39.2953 2.2469 496301.8128 -39.2953 2.2469
ENERGY: 41000 1663.0504 2355.1242 3178.9210 0.0000 -175774.7893 20165.1680 112.1004 0.0000 30697.5953 -117602.8300 298.4637 -148300.4253 -117555.9626 299.2848 4.4324 34.1019 497614.8884 -1.8620 -2.0852
ENERGY: 42000 1620.5019 2370.1200 3305.9487 0.0000 -176137.9398 20073.8914 118.3833 0.0000 30794.8362 -117854.2583 299.4091 -148649.0946 -117810.7284 298.7905 -36.3538 35.1201 496942.0970 4.8343 4.6256
ENERGY: 43000 1694.0314 2338.9294 3224.1682 0.0000 -175489.2349 19837.6763 123.9328 0.0000 30855.3172 -117415.1795 299.9971 -148270.4967 -117370.3056 299.8793 -143.7769 -32.4583 496745.9561 -3.9291 -4.0069
ENERGY: 44000 1578.1988 2416.2175 3223.7993 0.0000 -176125.3730 20100.1736 114.1106 0.0000 31023.3459 -117669.5274 301.6308 -148692.8733 -117633.7278 299.7383 89.3745 37.6567 496062.2003 3.6028 3.8753
ENERGY: 45000 1626.1633 2399.0435 3181.9383 0.0000 -176083.5341 20092.0026 120.0226 0.0000 30908.9403 -117755.4235 300.5185 -148664.3638 -117706.3743 299.0474 59.8125 -44.7711 496792.5582 3.6109 3.0174
TCL: Setting parameter constraintScaling to 0.01953125
TCL: Running for 5000 steps
ETITLE: TS BOND ANGLE DIHED IMPRP ELECT VDW BOUNDARY MISC KINETIC TOTAL TEMP POTENTIAL TOTAL3 TEMPAVG PRESSURE GPRESSURE VOLUME PRESSAVG GPRESSAVG
ENERGY: 45000 1626.1633 2399.0435 3181.9383 0.0000 -176083.5341 20092.0026 60.0113 0.0000 30906.8797 -117817.4954 300.4985 -148724.3751 -117771.4286 300.4985 48.6692 -53.7945 496792.5582 48.6692 -53.7945
ENERGY: 46000 1627.3190 2368.1435 3204.0217 0.0000 -176323.0035 20296.4692 78.3679 0.0000 30841.0161 -117907.6662 299.8581 -148748.6823 -117872.6006 299.8708 74.3938 91.6494 495760.0538 -8.5023 -8.3297
ENERGY: 47000 1725.3418 2351.1076 3235.7146 0.0000 -176534.4345 20213.4536 85.7045 0.0000 30897.7280 -118025.3845 300.4095 -148923.1125 -117984.4792 298.9611 -86.0666 -7.7523 496804.4601 9.6158 9.5081
ENERGY: 48000 1603.0126 2363.8543 3221.1230 0.0000 -175940.7777 20021.9881 85.2336 0.0000 30659.3940 -117986.1721 298.0922 -148645.5660 -117951.1360 299.2186 -38.9668 20.6178 495736.6769 7.7622 7.0241
ENERGY: 49000 1610.3324 2465.8999 3170.0671 0.0000 -176006.7176 20157.0761 90.8145 0.0000 30848.4094 -117664.1183 299.9300 -148512.5277 -117624.7845 299.2484 100.1071 98.8688 496760.0899 5.0696 5.1328
ENERGY: 50000 1644.0721 2445.6776 3201.3233 0.0000 -175720.9802 19969.7442 92.1710 0.0000 30672.1203 -117695.8715 298.2160 -148367.9918 -117659.4107 299.7446 10.3566 13.7600 496188.0575 1.0520 0.9015
TCL: Setting parameter constraintScaling to 0
TCL: Running for 5000 steps
ETITLE: TS BOND ANGLE DIHED IMPRP ELECT VDW BOUNDARY MISC KINETIC TOTAL TEMP POTENTIAL TOTAL3 TEMPAVG PRESSURE GPRESSURE VOLUME PRESSAVG GPRESSAVG
ENERGY: 50000 1644.0721 2445.6776 3201.3233 0.0000 -175720.9802 19969.7442 0.0000 0.0000 30670.0909 -117790.0720 298.1962 -148460.1629 -117742.9517 298.1962 -11.6098 -1.4259 496188.0575 -11.6098 -1.4259
ENERGY: 51000 1617.0763 2379.9887 3196.5230 0.0000 -176082.3285 20116.6209 0.0000 0.0000 30855.5260 -117916.5937 299.9992 -148772.1196 -117868.8233 299.5565 -44.8272 54.1383 495671.1540 -7.6487 -7.3481
ENERGY: 52000 1722.1535 2421.2983 3199.6907 0.0000 -176310.5123 20173.9588 0.0000 0.0000 30834.1199 -117959.2912 299.7910 -148793.4111 -117922.6802 298.8005 -155.3401 22.2223 495940.5866 3.3284 3.5275
ENERGY: 53000 1622.0350 2419.1008 3238.6153 0.0000 -175729.1249 19887.4401 0.0000 0.0000 30984.5462 -117577.3876 301.2536 -148561.9338 -117535.5188 299.5046 10.8725 -27.0665 497134.2341 7.1363 7.1069
ENERGY: 54000 1655.5828 2378.3079 3213.2815 0.0000 -176294.6438 20170.7064 0.0000 0.0000 30841.8820 -118034.8833 299.8665 -148876.7652 -117986.2379 298.9715 3.5020 -25.7397 497662.5065 3.7909 3.6142
ENERGY: 55000 1718.1319 2401.2631 3244.9766 0.0000 -176673.9284 20343.5882 0.0000 0.0000 30764.5024 -118201.4662 299.1142 -148965.9686 -118150.9355 298.7123 48.4754 -8.2305 494820.2833 -4.1562 -3.8281
