Info: SIMULATION PARAMETERS:
Info: TIMESTEP               2
Info: NUMBER OF STEPS        0
Info: STEPS PER CYCLE        10
Info: PERIODIC CELL BASIS 1  72.449 0 0
Info: PERIODIC CELL BASIS 2  0 93.247 0
Info: PERIODIC CELL BASIS 3  0 0 79.185
Info: PERIODIC CELL CENTER   -0.248 -0.156 -0.047
Info: WRAPPING WATERS AROUND PERIODIC BOUNDARIES ON OUTPUT.
Info: WRAPPING ALL CLUSTERS AROUND PERIODIC BOUNDARIES ON OUTPUT.
Info: FIRST LDB TIMESTEP     50
Info: LAST LDB TIMESTEP     -1
Info: HOM BACKGROUND SCALING 1
Info: PME BACKGROUND SCALING 1
Info: MIN ATOMS PER PATCH    40
Info: INITIAL TEMPERATURE    0
Info: CENTER OF MASS MOVING INITIALLY? NO
Info: DIELECTRIC             1
Info: EXCLUDE                SCALED ONE-FOUR
Info: 1-4 ELECTROSTATICS SCALED BY 0.833333
Info: MODIFIED 1-4 VDW PARAMETERS WILL BE USED
Info: NO DCD TRAJECTORY OUTPUT
Info: NO EXTENDED SYSTEM TRAJECTORY OUTPUT
Info: NO VELOCITY DCD OUTPUT
Info: NO FORCE DCD OUTPUT
Info: OUTPUT FILENAME        ../replicas/rep16/equilibration/eq0
Info: NO RESTART FILE
Info: SWITCHING ACTIVE
Info: SWITCHING ON           10
Info: SWITCHING OFF          12
Info: PAIRLIST DISTANCE      13.5
Info: PAIRLIST SHRINK RATE   0.01
Info: PAIRLIST GROW RATE     0.01
Info: PAIRLIST TRIGGER       0.3
Info: PAIRLISTS PER CYCLE    2
Info: PAIRLISTS ENABLED
Info: MARGIN                 0
Info: HYDROGEN GROUP CUTOFF  2.5
Info: PATCH DIMENSION        16
Info: ENERGY OUTPUT STEPS    500
Info: CROSSTERM ENERGY INCLUDED IN DIHEDRAL
Info: TIMING OUTPUT STEPS    5000
Info: PRESSURE OUTPUT STEPS  500
Info: HARMONIC CONSTRAINTS ACTIVE
Info: HARMONIC CONS EXP      2
Info: HARMONIC CONS SCALING  10
Info: CONJUGATE GRADIENT MINIMIZATION ACTIVE
Info: LINE MINIMIZATION GOAL = 0.001
Info: BABY STEP SIZE = 0.01
Info: TINY STEP SIZE = 1e-06
Info: PARTICLE MESH EWALD (PME) ACTIVE
Info: PME TOLERANCE               1e-06
Info: PME EWALD COEFFICIENT       0.257952
Info: PME INTERPOLATION ORDER     4
Info: PME GRID DIMENSIONS         80 96 80
Info: PME MAXIMUM GRID SPACING    1
Info: FULL ELECTROSTATIC EVALUATION FREQUENCY      2
Info: USING VERLET I (r-RESPA) MTS SCHEME.
Info: C1 SPLITTING OF LONG RANGE ELECTROSTATICS
Info: PLACING ATOMS IN PATCHES BY HYDROGEN GROUPS
Info: RIGID BONDS TO HYDROGEN : ALL
Info:         ERROR TOLERANCE : 1e-05
Info:          MAX ITERATIONS : 100
Info: RIGID WATER USING SETTLE ALGORITHM
Info: RANDOM NUMBER SEED     1503248850
Info: USE HYDROGEN BONDS?    NO
Info: Using AMBER format force field!
Info: AMBER PARM FILE        ../build/complex.top
Info: COORDINATE PDB         ../build/complex.pdb
Info: Exclusions in PARM file will be ignored!
Info: SCNB (VDW SCALING)     2
Info: USING ARITHMETIC MEAN TO COMBINE L-J SIGMA PARAMETERS
Info: SUMMARY OF PARAMETERS:
Info: 71 BONDS
Info: 145 ANGLES
Info: 76 DIHEDRAL
Info: 0 IMPROPER
Info: 0 CROSSTERM
Info: 0 VDW
Info: 190 VDW_PAIRS
Info: 0 NBTHOLE_PAIRS
Info: STRUCTURE SUMMARY:
Info: 49394 ATOMS
Info: 49448 BONDS
Info: 8698 ANGLES
Info: 18780 DIHEDRALS
Info: 0 IMPROPERS
Info: 0 CROSSTERMS
Info: 0 EXCLUSIONS
Info: 2336 CONSTRAINTS
Info: 47058 RIGID BONDS
Info: 101124 DEGREES OF FREEDOM
Info: 17225 HYDROGEN GROUPS
Info: 4 ATOMS IN LARGEST HYDROGEN GROUP
Info: 17225 MIGRATION GROUPS
Info: 4 ATOMS IN LARGEST MIGRATION GROUP
Info: TOTAL MASS = 301478 amu
Info: TOTAL CHARGE = 1.00115e-05 e
Info: MASS DENSITY = 0.935846 g/cm^3
Info: ATOM DENSITY = 0.0923345 atoms/A^3
Info: ADDED 70656 IMPLICIT EXCLUSIONS
Info: NONBONDED TABLE R-SQUARED SPACING: 0.0625
Info: NONBONDED TABLE SIZE: 769 POINTS
Info: REMOVING COM VELOCITY 0 0 0
TCL: Minimizing for 100 steps
ETITLE: TS BOND ANGLE DIHED IMPRP ELECT VDW BOUNDARY MISC KINETIC TOTAL TEMP POTENTIAL TOTAL3 TEMPAVG PRESSURE GPRESSURE VOLUME PRESSAVG GPRESSAVG
ENERGY: 0 155.4176 1012.2698 2855.7272 0.0000 -154496.7912 207729.2052 0.0468 0.0000 0.0000 57255.8754 0.0000 57255.8754 57255.8754 0.0000 116350.2532 86546.1670 534946.2959 116350.2532 86546.1670
ENERGY: 20 304.7555 935.7912 2893.4663 0.0000 -158672.9408 17936.6593 143.9454 0.0000 0.0000 -136458.3231 0.0000 -136458.3231 -136458.3231 0.0000 16523.9386 -239.4559 534946.2959 16523.9386 -239.4559
ENERGY: 40 198.7446 799.5728 2896.9273 0.0000 -162811.4530 16417.9538 221.3030 0.0000 0.0000 -142276.9516 0.0000 -142276.9516 -142276.9516 0.0000 15011.2704 -2135.4697 534946.2959 15011.2704 -2135.4697
ENERGY: 60 130.5283 715.3440 2898.2166 0.0000 -167496.1562 15446.7540 315.2796 0.0000 0.0000 -147990.0337 0.0000 -147990.0337 -147990.0337 0.0000 13793.8839 -3799.3984 534946.2959 13793.8839 -3799.3984
ENERGY: 80 431.2732 765.6307 2904.3786 0.0000 -169937.5318 15121.1521 372.0123 0.0000 0.0000 -150343.0848 0.0000 -150343.0848 -150343.0848 0.0000 13270.3303 -4577.2454 534946.2959 13270.3303 -4577.2454
ENERGY: 100 119.3854 710.0600 2905.2590 0.0000 -171259.7121 14991.7871 387.3612 0.0000 0.0000 -152145.8594 0.0000 -152145.8594 -152145.8594 0.0000 13056.2656 -4908.1720 534946.2959 13056.2656 -4908.1720
TCL: Setting parameter constraintScaling to 5.0
TCL: Minimizing for 100 steps
ETITLE: TS BOND ANGLE DIHED IMPRP ELECT VDW BOUNDARY MISC KINETIC TOTAL TEMP POTENTIAL TOTAL3 TEMPAVG PRESSURE GPRESSURE VOLUME PRESSAVG GPRESSAVG
ENERGY: 100 119.3854 710.0600 2905.2590 0.0000 -171259.7121 14991.7871 193.6806 0.0000 0.0000 -152339.5400 0.0000 -152339.5400 -152339.5400 0.0000 13672.7717 -23021.8181 534946.2959 13672.7717 -23021.8181
ENERGY: 120 108.8846 687.5848 2912.9267 0.0000 -172865.8814 14798.2707 281.1917 0.0000 0.0000 -154077.0229 0.0000 -154077.0229 -154077.0229 0.0000 13218.2548 -4906.0164 534946.2959 13218.2548 -4906.0164
ENERGY: 140 309.4529 708.8716 2913.8026 0.0000 -174236.6201 14731.4842 326.6379 0.0000 0.0000 -155246.3710 0.0000 -155246.3710 -155246.3710 0.0000 12971.5321 -5303.2313 534946.2959 12971.5321 -5303.2313
ENERGY: 160 265.1209 683.0809 2923.1674 0.0000 -176274.6093 14757.2927 382.8622 0.0000 0.0000 -157263.0852 0.0000 -157263.0852 -157263.0852 0.0000 12741.0509 -5740.7925 534946.2959 12741.0509 -5740.7925
ENERGY: 180 268.9678 744.0946 2928.5665 0.0000 -178994.7972 15023.4125 473.2706 0.0000 0.0000 -159556.4852 0.0000 -159556.4852 -159556.4852 0.0000 12521.6376 -6221.9080 534946.2959 12521.6376 -6221.9080
ENERGY: 200 238.8207 694.1000 2941.3578 0.0000 -181555.8706 15586.9588 546.2585 0.0000 0.0000 -161548.3748 0.0000 -161548.3748 -161548.3748 0.0000 12582.6402 -6427.8383 534946.2959 12582.6402 -6427.8383
TCL: Setting parameter constraintScaling to 2.5
TCL: Minimizing for 100 steps
ETITLE: TS BOND ANGLE DIHED IMPRP ELECT VDW BOUNDARY MISC KINETIC TOTAL TEMP POTENTIAL TOTAL3 TEMPAVG PRESSURE GPRESSURE VOLUME PRESSAVG GPRESSAVG
ENERGY: 200 238.8207 694.1000 2941.3578 0.0000 -181555.8706 15586.9588 273.1292 0.0000 0.0000 -161821.5041 0.0000 -161821.5041 -161821.5041 0.0000 13229.5379 -25658.6113 534946.2959 13229.5379 -25658.6113
ENERGY: 220 246.7630 677.9129 2933.0099 0.0000 -182077.0819 15471.6389 337.7872 0.0000 0.0000 -162409.9699 0.0000 -162409.9699 -162409.9699 0.0000 12971.0567 -6094.1347 534946.2959 12971.0567 -6094.1347
ENERGY: 240 140.4402 666.5688 2928.6097 0.0000 -182465.1880 15494.3602 343.7181 0.0000 0.0000 -162891.4911 0.0000 -162891.4911 -162891.4911 0.0000 13034.2108 -6111.6683 534946.2959 13034.2108 -6111.6683
ENERGY: 260 232.3253 702.0209 2922.5299 0.0000 -183745.2822 15756.7734 378.9573 0.0000 0.0000 -163752.6753 0.0000 -163752.6753 -163752.6753 0.0000 13014.1579 -6241.2909 534946.2959 13014.1579 -6241.2909
ENERGY: 280 203.4469 703.6970 2917.7688 0.0000 -185463.5484 16244.0008 457.0814 0.0000 0.0000 -164937.5536 0.0000 -164937.5536 -164937.5536 0.0000 13144.4362 -6346.3950 534946.2959 13144.4362 -6346.3950
ENERGY: 300 196.1060 659.2200 2920.7990 0.0000 -186575.6724 16640.2449 515.1783 0.0000 0.0000 -165644.1242 0.0000 -165644.1242 -165644.1242 0.0000 13239.0246 -6359.8707 534946.2959 13239.0246 -6359.8707
TCL: Setting parameter constraintScaling to 1.25
TCL: Minimizing for 100 steps
ETITLE: TS BOND ANGLE DIHED IMPRP ELECT VDW BOUNDARY MISC KINETIC TOTAL TEMP POTENTIAL TOTAL3 TEMPAVG PRESSURE GPRESSURE VOLUME PRESSAVG GPRESSAVG
ENERGY: 300 196.1060 659.2200 2920.7990 0.0000 -186575.6724 16640.2449 257.5891 0.0000 0.0000 -165901.7133 0.0000 -165901.7133 -165901.7133 0.0000 13701.8531 -26426.0483 534946.2959 13701.8531 -26426.0483
ENERGY: 320 155.1165 660.3544 2909.1678 0.0000 -187276.8709 16813.0250 287.7270 0.0000 0.0000 -166451.4801 0.0000 -166451.4801 -166451.4801 0.0000 13709.6699 -5964.2842 534946.2959 13709.6699 -5964.2842
ENERGY: 340 164.8199 655.8554 2910.1290 0.0000 -187801.2054 16974.7587 309.4851 0.0000 0.0000 -166786.1572 0.0000 -166786.1572 -166786.1572 0.0000 13769.7467 -5966.9675 534946.2959 13769.7467 -5966.9675
ENERGY: 360 206.0226 678.4486 2917.1828 0.0000 -188879.5601 17361.7829 349.8942 0.0000 0.0000 -167366.2290 0.0000 -167366.2290 -167366.2290 0.0000 13831.3083 -6000.4174 534946.2959 13831.3083 -6000.4174
ENERGY: 380 149.6220 645.6650 2900.0125 0.0000 -189104.4127 17422.8206 345.7594 0.0000 0.0000 -167640.5333 0.0000 -167640.5333 -167640.5333 0.0000 13924.3353 -5960.6065 534946.2959 13924.3353 -5960.6065
ENERGY: 400 173.1785 673.9545 2905.1796 0.0000 -189734.5693 17608.5885 360.3879 0.0000 0.0000 -168013.2802 0.0000 -168013.2802 -168013.2802 0.0000 13944.4768 -6002.2160 534946.2959 13944.4768 -6002.2160
TCL: Setting parameter constraintScaling to 0.625
TCL: Minimizing for 100 steps
ETITLE: TS BOND ANGLE DIHED IMPRP ELECT VDW BOUNDARY MISC KINETIC TOTAL TEMP POTENTIAL TOTAL3 TEMPAVG PRESSURE GPRESSURE VOLUME PRESSAVG GPRESSAVG
ENERGY: 400 173.1785 673.9545 2905.1796 0.0000 -189734.5693 17608.5885 180.1940 0.0000 0.0000 -168193.4742 0.0000 -168193.4742 -168193.4742 0.0000 14227.9036 -26637.7749 534946.2959 14227.9036 -26637.7749
ENERGY: 420 150.1332 652.6648 2903.2121 0.0000 -190051.3523 17698.9045 195.2931 0.0000 0.0000 -168451.1448 0.0000 -168451.1448 -168451.1448 0.0000 14270.0182 -5726.2196 534946.2959 14270.0182 -5726.2196
ENERGY: 440 177.2069 690.2881 2899.7097 0.0000 -191404.8252 18177.0240 253.8350 0.0000 0.0000 -169206.7616 0.0000 -169206.7616 -169206.7616 0.0000 14347.4904 -5783.9549 534946.2959 14347.4904 -5783.9549
ENERGY: 460 389.5578 748.8771 2894.0821 0.0000 -193367.3734 18944.8900 325.4908 0.0000 0.0000 -170064.4756 0.0000 -170064.4756 -170064.4756 0.0000 14575.0824 -5770.5893 534946.2959 14575.0824 -5770.5893
ENERGY: 480 148.4359 660.9260 2881.0987 0.0000 -193524.7462 19005.3247 321.8011 0.0000 0.0000 -170507.1598 0.0000 -170507.1598 -170507.1598 0.0000 14700.1074 -5685.4864 534946.2959 14700.1074 -5685.4864
ENERGY: 500 170.4987 670.5757 2888.3946 0.0000 -194225.7780 19276.2021 309.5728 0.0000 0.0000 -170910.5341 0.0000 -170910.5341 -170910.5341 0.0000 14855.1320 -5603.1413 534946.2959 14855.1320 -5603.1413
TCL: Setting parameter constraintScaling to 0.3125
TCL: Minimizing for 100 steps
ETITLE: TS BOND ANGLE DIHED IMPRP ELECT VDW BOUNDARY MISC KINETIC TOTAL TEMP POTENTIAL TOTAL3 TEMPAVG PRESSURE GPRESSURE VOLUME PRESSAVG GPRESSAVG
ENERGY: 500 170.4987 670.5757 2888.3946 0.0000 -194225.7780 19276.2021 154.7864 0.0000 0.0000 -171065.3206 0.0000 -171065.3206 -171065.3206 0.0000 15053.9022 -26865.9027 534946.2959 15053.9022 -26865.9027
ENERGY: 520 155.1899 649.7898 2875.4639 0.0000 -194438.5720 19328.8094 164.0862 0.0000 0.0000 -171265.2327 0.0000 -171265.2327 -171265.2327 0.0000 15051.0186 -5428.7900 534946.2959 15051.0186 -5428.7900
ENERGY: 540 186.4546 704.5724 2878.8055 0.0000 -195119.7479 19562.9040 188.2084 0.0000 0.0000 -171598.8031 0.0000 -171598.8031 -171598.8031 0.0000 15091.9005 -5447.6357 534946.2959 15091.9005 -5447.6357
ENERGY: 560 163.9114 652.1101 2870.8344 0.0000 -195364.9483 19660.3772 188.0048 0.0000 0.0000 -171829.7104 0.0000 -171829.7104 -171829.7104 0.0000 15165.2213 -5411.8109 534946.2959 15165.2213 -5411.8109
ENERGY: 580 176.3604 698.2051 2880.2671 0.0000 -195829.3737 19854.1441 192.1028 0.0000 0.0000 -172028.2943 0.0000 -172028.2943 -172028.2943 0.0000 15272.3740 -5365.2193 534946.2959 15272.3740 -5365.2193
ENERGY: 600 154.2290 653.6060 2870.4364 0.0000 -197134.4037 20366.0619 217.0331 0.0000 0.0000 -172873.0372 0.0000 -172873.0372 -172873.0372 0.0000 15515.1790 -5271.2655 534946.2959 15515.1790 -5271.2655
TCL: Setting parameter constraintScaling to 0.15625
TCL: Minimizing for 100 steps
ETITLE: TS BOND ANGLE DIHED IMPRP ELECT VDW BOUNDARY MISC KINETIC TOTAL TEMP POTENTIAL TOTAL3 TEMPAVG PRESSURE GPRESSURE VOLUME PRESSAVG GPRESSAVG
ENERGY: 600 154.2290 653.6060 2870.4364 0.0000 -197134.4037 20366.0619 108.5166 0.0000 0.0000 -172981.5538 0.0000 -172981.5538 -172981.5538 0.0000 15637.3505 -26972.0923 534946.2959 15637.3505 -26972.0923
ENERGY: 620 161.8138 639.3423 2860.2101 0.0000 -197400.3995 20436.2740 115.8083 0.0000 0.0000 -173186.9509 0.0000 -173186.9509 -173186.9509 0.0000 15635.2449 -5177.0149 534946.2959 15635.2449 -5177.0149
ENERGY: 640 246.2732 675.1886 2861.5402 0.0000 -197924.7132 20631.4660 127.1598 0.0000 0.0000 -173383.0854 0.0000 -173383.0854 -173383.0854 0.0000 15666.1262 -5193.4348 534946.2959 15666.1262 -5193.4348
ENERGY: 660 180.4645 656.9205 2853.7786 0.0000 -198412.4849 20808.1534 134.4507 0.0000 0.0000 -173778.7172 0.0000 -173778.7172 -173778.7172 0.0000 15771.3269 -5164.4183 534946.2959 15771.3269 -5164.4183
ENERGY: 680 157.6705 648.3696 2850.7761 0.0000 -198833.0836 20961.2006 139.8150 0.0000 0.0000 -174075.2518 0.0000 -174075.2518 -174075.2518 0.0000 15847.0526 -5132.3488 534946.2959 15847.0526 -5132.3488
ENERGY: 700 187.3106 664.1246 2847.5861 0.0000 -199192.8479 21093.1793 142.1417 0.0000 0.0000 -174258.5057 0.0000 -174258.5057 -174258.5057 0.0000 15913.8945 -5104.7019 534946.2959 15913.8945 -5104.7019
TCL: Setting parameter constraintScaling to 0.078125
TCL: Minimizing for 100 steps
ETITLE: TS BOND ANGLE DIHED IMPRP ELECT VDW BOUNDARY MISC KINETIC TOTAL TEMP POTENTIAL TOTAL3 TEMPAVG PRESSURE GPRESSURE VOLUME PRESSAVG GPRESSAVG
ENERGY: 700 187.3106 664.1246 2847.5861 0.0000 -199192.8479 21093.1793 71.0708 0.0000 0.0000 -174329.5765 0.0000 -174329.5765 -174329.5765 0.0000 15985.1065 -27107.5914 534946.2959 15985.1065 -27107.5914
ENERGY: 720 174.4587 649.4147 2846.1835 0.0000 -199435.5639 21176.1381 73.6252 0.0000 0.0000 -174515.7437 0.0000 -174515.7437 -174515.7437 0.0000 16014.3074 -5030.7049 534946.2959 16014.3074 -5030.7049
ENERGY: 740 173.2189 651.4900 2841.5376 0.0000 -199938.0896 21360.3317 78.9318 0.0000 0.0000 -174832.5795 0.0000 -174832.5795 -174832.5795 0.0000 16096.2349 -5015.2761 534946.2959 16096.2349 -5015.2761
ENERGY: 760 160.7490 648.5351 2837.7738 0.0000 -200478.1465 21557.3538 84.2432 0.0000 0.0000 -175189.4917 0.0000 -175189.4917 -175189.4917 0.0000 16187.4637 -4984.0257 534946.2959 16187.4637 -4984.0257
ENERGY: 780 181.7144 665.5632 2836.4311 0.0000 -200771.3218 21674.1258 85.4816 0.0000 0.0000 -175328.0057 0.0000 -175328.0057 -175328.0057 0.0000 16266.1861 -4948.5301 534946.2959 16266.1861 -4948.5301
ENERGY: 800 195.1790 669.0448 2833.5683 0.0000 -201978.0369 22177.5302 94.5301 0.0000 0.0000 -176008.1845 0.0000 -176008.1845 -176008.1845 0.0000 16492.5661 -4857.1669 534946.2959 16492.5661 -4857.1669
TCL: Setting parameter constraintScaling to 0.0390625
TCL: Minimizing for 100 steps
ETITLE: TS BOND ANGLE DIHED IMPRP ELECT VDW BOUNDARY MISC KINETIC TOTAL TEMP POTENTIAL TOTAL3 TEMPAVG PRESSURE GPRESSURE VOLUME PRESSAVG GPRESSAVG
ENERGY: 800 195.1790 669.0448 2833.5683 0.0000 -201978.0369 22177.5302 47.2651 0.0000 0.0000 -176055.4495 0.0000 -176055.4495 -176055.4495 0.0000 16535.1877 -27234.2738 534946.2959 16535.1877 -27234.2738
ENERGY: 820 158.7251 650.9512 2829.1250 0.0000 -202066.9565 22199.0149 48.0078 0.0000 0.0000 -176181.1325 0.0000 -176181.1325 -176181.1325 0.0000 16577.6195 -4791.0481 534946.2959 16577.6195 -4791.0481
ENERGY: 840 165.7549 672.8821 2826.7157 0.0000 -202566.0464 22396.5525 52.4439 0.0000 0.0000 -176451.6973 0.0000 -176451.6973 -176451.6973 0.0000 16633.2707 -4787.2677 534946.2959 16633.2707 -4787.2677
ENERGY: 860 170.0441 656.0296 2825.8301 0.0000 -202837.4437 22505.3212 51.8392 0.0000 0.0000 -176628.3794 0.0000 -176628.3794 -176628.3794 0.0000 16730.5078 -4730.1421 534946.2959 16730.5078 -4730.1421
ENERGY: 880 367.8267 727.5843 2833.7755 0.0000 -203590.3944 22849.0478 54.8646 0.0000 0.0000 -176757.2956 0.0000 -176757.2956 -176757.2956 0.0000 16927.0407 -4639.8471 534946.2959 16927.0407 -4639.8471
ENERGY: 900 171.5950 659.6147 2825.7475 0.0000 -203620.5791 22841.5767 55.1915 0.0000 0.0000 -177066.8537 0.0000 -177066.8537 -177066.8537 0.0000 16921.8564 -4636.2636 534946.2959 16921.8564 -4636.2636
TCL: Setting parameter constraintScaling to 0.01953125
TCL: Minimizing for 100 steps
ETITLE: TS BOND ANGLE DIHED IMPRP ELECT VDW BOUNDARY MISC KINETIC TOTAL TEMP POTENTIAL TOTAL3 TEMPAVG PRESSURE GPRESSURE VOLUME PRESSAVG GPRESSAVG
ENERGY: 900 171.5950 659.6147 2825.7475 0.0000 -203620.5791 22841.5767 27.5958 0.0000 0.0000 -177094.4495 0.0000 -177094.4495 -177094.4495 0.0000 16945.4527 -27219.8196 534946.2959 16945.4527 -27219.8196
ENERGY: 920 167.6432 654.9749 2818.1917 0.0000 -203802.5585 22893.7813 28.6990 0.0000 0.0000 -177239.2684 0.0000 -177239.2684 -177239.2684 0.0000 16932.5442 -4640.4093 534946.2959 16932.5442 -4640.4093
ENERGY: 940 251.5636 685.4986 2817.6187 0.0000 -204133.0452 23044.0022 30.3167 0.0000 0.0000 -177304.0453 0.0000 -177304.0453 -177304.0453 0.0000 16964.6150 -4640.7876 534946.2959 16964.6150 -4640.7876
ENERGY: 960 180.4211 667.5940 2818.0881 0.0000 -204307.4090 23109.9616 30.3593 0.0000 0.0000 -177500.9849 0.0000 -177500.9849 -177500.9849 0.0000 17015.3846 -4617.2603 534946.2959 17015.3846 -4617.2603
ENERGY: 980 166.8374 655.9038 2819.7851 0.0000 -204711.9664 23302.1387 30.9428 0.0000 0.0000 -177736.3586 0.0000 -177736.3586 -177736.3586 0.0000 17151.6661 -4522.8244 534946.2959 17151.6661 -4522.8244
ENERGY: 1000 176.8951 660.2248 2808.0343 0.0000 -205553.8036 23684.7409 34.0702 0.0000 0.0000 -178189.8383 0.0000 -178189.8383 -178189.8383 0.0000 17321.4455 -4450.9735 534946.2959 17321.4455 -4450.9735
TCL: Setting parameter constraintScaling to 0
TCL: Minimizing for 5000 steps
ETITLE: TS BOND ANGLE DIHED IMPRP ELECT VDW BOUNDARY MISC KINETIC TOTAL TEMP POTENTIAL TOTAL3 TEMPAVG PRESSURE GPRESSURE VOLUME PRESSAVG GPRESSAVG
ENERGY: 1000 176.8951 660.2248 2808.0343 0.0000 -205553.8036 23684.7409 0.0000 0.0000 0.0000 -178223.9085 0.0000 -178223.9085 -178223.9085 0.0000 17348.3361 -27275.1537 534946.2959 17348.3361 -27275.1537
ENERGY: 2000 168.4442 660.8296 2800.7444 0.0000 -214593.8618 27642.6308 0.0000 0.0000 0.0000 -183321.2128 0.0000 -183321.2128 -183321.2128 0.0000 19435.6493 -3350.6608 534946.2959 19435.6493 -3350.6608
ENERGY: 3000 168.4382 665.1893 2792.5880 0.0000 -217496.3417 28878.9010 0.0000 0.0000 0.0000 -184991.2253 0.0000 -184991.2253 -184991.2253 0.0000 20098.9597 -2993.8173 534946.2959 20098.9597 -2993.8173
ENERGY: 4000 165.9048 663.2758 2787.0447 0.0000 -218725.5482 29374.8736 0.0000 0.0000 0.0000 -185734.4492 0.0000 -185734.4492 -185734.4492 0.0000 20365.2329 -2854.4559 534946.2959 20365.2329 -2854.4559
ENERGY: 5000 166.8519 662.7516 2782.7348 0.0000 -219439.1508 29654.5443 0.0000 0.0000 0.0000 -186172.2682 0.0000 -186172.2682 -186172.2682 0.0000 20505.1752 -2792.2316 534946.2959 20505.1752 -2792.2316
ENERGY: 6000 165.6418 662.0427 2781.6615 0.0000 -219828.5329 29802.7881 0.0000 0.0000 0.0000 -186416.3987 0.0000 -186416.3987 -186416.3987 0.0000 20586.4606 -2754.6966 534946.2959 20586.4606 -2754.6966
