Info: SIMULATION PARAMETERS:
Info: TIMESTEP               1
Info: NUMBER OF STEPS        0
Info: STEPS PER CYCLE        10
Info: PERIODIC CELL BASIS 1  72.449 0 0
Info: PERIODIC CELL BASIS 2  0 93.247 0
Info: PERIODIC CELL BASIS 3  0 0 79.185
Info: PERIODIC CELL CENTER   -0.248 -0.156 -0.047
Info: WRAPPING WATERS AROUND PERIODIC BOUNDARIES ON OUTPUT.
Info: WRAPPING ALL CLUSTERS AROUND PERIODIC BOUNDARIES ON OUTPUT.
Info: FIRST LDB TIMESTEP     50
Info: LAST LDB TIMESTEP     -1
Info: HOM BACKGROUND SCALING 1
Info: PME BACKGROUND SCALING 1
Info: MIN ATOMS PER PATCH    40
Info: VELOCITY FILE          ../replicas/rep64/equilibration/eq1.vel
Info: CENTER OF MASS MOVING INITIALLY? NO
Info: DIELECTRIC             1
Info: EXCLUDE                SCALED ONE-FOUR
Info: 1-4 ELECTROSTATICS SCALED BY 0.833333
Info: MODIFIED 1-4 VDW PARAMETERS WILL BE USED
Info: DCD FILENAME           ../replicas/rep64/equilibration/eq2.dcd
Info: DCD FREQUENCY          5000
Info: DCD FIRST STEP         5000
Info: DCD FILE WILL CONTAIN UNIT CELL DATA
Info: XST FILENAME           ../replicas/rep64/equilibration/eq2.xst
Info: XST FREQUENCY          5000
Info: NO VELOCITY DCD OUTPUT
Info: NO FORCE DCD OUTPUT
Info: OUTPUT FILENAME        ../replicas/rep64/equilibration/eq2
Info: RESTART FILENAME       ../replicas/rep64/equilibration/eq2.restart
Info: RESTART FREQUENCY      5000
Info: BINARY RESTART FILES WILL BE USED
Info: SWITCHING ACTIVE
Info: SWITCHING ON           10
Info: SWITCHING OFF          12
Info: PAIRLIST DISTANCE      13.5
Info: PAIRLIST SHRINK RATE   0.01
Info: PAIRLIST GROW RATE     0.01
Info: PAIRLIST TRIGGER       0.3
Info: PAIRLISTS PER CYCLE    2
Info: PAIRLISTS ENABLED
Info: MARGIN                 0.48
Info: HYDROGEN GROUP CUTOFF  2.5
Info: PATCH DIMENSION        16.48
Info: ENERGY OUTPUT STEPS    500
Info: CROSSTERM ENERGY INCLUDED IN DIHEDRAL
Info: TIMING OUTPUT STEPS    5000
Info: PRESSURE OUTPUT STEPS  500
Info: HARMONIC CONSTRAINTS ACTIVE
Info: HARMONIC CONS EXP      2
Info: HARMONIC CONS SCALING  10
Info: LANGEVIN DYNAMICS ACTIVE
Info: LANGEVIN TEMPERATURE   300
Info: LANGEVIN USING BBK INTEGRATOR
Info: LANGEVIN DAMPING COEFFICIENT IS 5 INVERSE PS
Info: LANGEVIN DYNAMICS NOT APPLIED TO HYDROGENS
Info: BERENDSEN PRESSURE COUPLING ACTIVE
Info:     TARGET PRESSURE IS 1 BAR
Info:     COMPRESSIBILITY ESTIMATE IS 4.57e-05 BAR^(-1)
Info:     RELAXATION TIME IS 100 FS
Info:     APPLIED EVERY 2 STEPS
Info:     PRESSURE CONTROL IS GROUP-BASED
Info:       CELL FLUCTUATION IS ISOTROPIC
Info: PARTICLE MESH EWALD (PME) ACTIVE
Info: PME TOLERANCE               1e-06
Info: PME EWALD COEFFICIENT       0.257952
Info: PME INTERPOLATION ORDER     4
Info: PME GRID DIMENSIONS         80 96 80
Info: PME MAXIMUM GRID SPACING    1
Info: FULL ELECTROSTATIC EVALUATION FREQUENCY      2
Info: USING VERLET I (r-RESPA) MTS SCHEME.
Info: C1 SPLITTING OF LONG RANGE ELECTROSTATICS
Info: PLACING ATOMS IN PATCHES BY HYDROGEN GROUPS
Info: RIGID BONDS TO HYDROGEN : WATER
Info:         ERROR TOLERANCE : 1e-05
Info:          MAX ITERATIONS : 100
Info: RIGID WATER USING SETTLE ALGORITHM
Info: RANDOM NUMBER SEED     1503716200
Info: USE HYDROGEN BONDS?    NO
Info: Using AMBER format force field!
Info: AMBER PARM FILE        ../build/complex.top
Info: COORDINATE PDB         ../replicas/rep64/equilibration/eq1.coor
Info: Exclusions in PARM file will be ignored!
Info: SCNB (VDW SCALING)     2
Info: USING ARITHMETIC MEAN TO COMBINE L-J SIGMA PARAMETERS
Info: SUMMARY OF PARAMETERS:
Info: 71 BONDS
Info: 145 ANGLES
Info: 76 DIHEDRAL
Info: 0 IMPROPER
Info: 0 CROSSTERM
Info: 0 VDW
Info: 190 VDW_PAIRS
Info: 0 NBTHOLE_PAIRS
Info: STRUCTURE SUMMARY:
Info: 49394 ATOMS
Info: 49448 BONDS
Info: 8698 ANGLES
Info: 18780 DIHEDRALS
Info: 0 IMPROPERS
Info: 0 CROSSTERMS
Info: 0 EXCLUSIONS
Info: 2336 CONSTRAINTS
Info: 44667 RIGID BONDS
Info: 103515 DEGREES OF FREEDOM
Info: 17225 HYDROGEN GROUPS
Info: 4 ATOMS IN LARGEST HYDROGEN GROUP
Info: 17225 MIGRATION GROUPS
Info: 4 ATOMS IN LARGEST MIGRATION GROUP
Info: TOTAL MASS = 301478 amu
Info: TOTAL CHARGE = 1.00115e-05 e
Info: MASS DENSITY = 0.935846 g/cm^3
Info: ATOM DENSITY = 0.0923345 atoms/A^3
Info: ADDED 70656 IMPLICIT EXCLUSIONS
Info: NONBONDED TABLE R-SQUARED SPACING: 0.0625
Info: NONBONDED TABLE SIZE: 769 POINTS
Info: REMOVING COM VELOCITY 0.0258431 -0.00259584 0.0149773
TCL: Running for 5000 steps
ETITLE: TS BOND ANGLE DIHED IMPRP ELECT VDW BOUNDARY MISC KINETIC TOTAL TEMP POTENTIAL TOTAL3 TEMPAVG PRESSURE GPRESSURE VOLUME PRESSAVG GPRESSAVG
ENERGY: 0 383.6762 1215.9102 2935.0300 0.0000 -212880.9822 29724.1783 0.0000 0.0000 10101.4476 -168520.7398 98.2134 -178622.1875 -168511.0757 98.2134 -2340.7761 -2441.5749 534946.2959 -2340.7761 -2441.5749
ENERGY: 1000 1229.6248 2014.9664 3132.5174 0.0000 -193207.5097 26248.1962 792.9414 0.0000 24307.6430 -135481.6205 236.3360 -159789.2635 -135457.7955 219.5899 -75.3573 -31.0420 523993.3372 4.6613 4.3004
ENERGY: 2000 1493.7219 2147.0036 3142.7951 0.0000 -184286.8065 23391.8269 822.3110 0.0000 27807.4602 -125481.6878 270.3637 -153289.1480 -125449.6771 264.9960 37.0797 -15.6168 515146.5263 -27.7938 -28.2984
ENERGY: 3000 1529.5238 2188.2967 3129.8503 0.0000 -179311.5511 21662.6302 799.8950 0.0000 29454.8092 -120546.5458 286.3804 -150001.3550 -120503.7756 284.5174 -79.2962 -39.0795 511123.9747 -19.6273 -19.7125
ENERGY: 4000 1511.6433 2214.5947 3147.6934 0.0000 -177032.6402 20879.3746 788.3318 0.0000 30223.4931 -118267.5092 293.8541 -148491.0023 -118225.4774 292.8343 -39.4839 -36.8748 508014.8719 -23.8469 -23.8998
ENERGY: 5000 1566.6516 2243.7991 3175.7245 0.0000 -175787.1748 20441.4951 811.3053 0.0000 30600.7367 -116947.4626 297.5219 -147548.1992 -116903.6851 297.7993 108.1106 26.7535 508313.4030 17.3047 17.1579
TCL: Setting parameter constraintScaling to 5.0
TCL: Running for 5000 steps
ETITLE: TS BOND ANGLE DIHED IMPRP ELECT VDW BOUNDARY MISC KINETIC TOTAL TEMP POTENTIAL TOTAL3 TEMPAVG PRESSURE GPRESSURE VOLUME PRESSAVG GPRESSAVG
ENERGY: 5000 1566.6516 2243.7991 3175.7245 0.0000 -175787.1748 20441.4951 405.6526 0.0000 30598.6884 -117355.1634 297.5020 -147953.8519 -117309.8410 297.5020 -30.0234 -111.3988 508313.4030 -30.0234 -111.3988
ENERGY: 6000 1573.2692 2378.2036 3188.1311 0.0000 -175432.0626 20336.3738 660.5433 0.0000 30533.7098 -116761.8317 296.8702 -147295.5415 -116719.4654 299.6797 -37.6268 -30.7903 504408.8072 -24.8605 -24.4459
ENERGY: 7000 1630.2138 2396.1168 3137.8908 0.0000 -175974.4428 20269.8938 651.3832 0.0000 31002.1559 -116886.7884 301.4248 -147888.9443 -116841.3642 299.2875 156.7801 26.9458 503153.3076 -0.5846 -0.5600
ENERGY: 8000 1613.1986 2297.0654 3174.1865 0.0000 -176043.6878 20340.6718 631.3111 0.0000 30759.9541 -117227.3003 299.0700 -147987.2544 -117165.4944 298.7020 -52.8648 11.5470 500667.9200 -9.6934 -9.6818
ENERGY: 9000 1634.0227 2255.5030 3157.9846 0.0000 -175642.1436 20088.1057 654.4510 0.0000 30989.1642 -116862.9124 301.2985 -147852.0766 -116820.6406 299.4202 9.4317 -28.0258 500577.6950 -16.2010 -15.9361
ENERGY: 10000 1617.4423 2314.5615 3160.8512 0.0000 -175307.9759 19865.1444 649.3940 0.0000 30895.3613 -116805.2213 300.3865 -147700.5826 -116760.7552 300.3270 116.7791 67.9356 501030.1181 12.1741 12.1009
TCL: Setting parameter constraintScaling to 2.5
TCL: Running for 5000 steps
ETITLE: TS BOND ANGLE DIHED IMPRP ELECT VDW BOUNDARY MISC KINETIC TOTAL TEMP POTENTIAL TOTAL3 TEMPAVG PRESSURE GPRESSURE VOLUME PRESSAVG GPRESSAVG
ENERGY: 10000 1617.4423 2314.5615 3160.8512 0.0000 -175307.9759 19865.1444 324.6970 0.0000 30893.3476 -117131.9320 300.3669 -148025.2796 -117088.8090 300.3669 0.0667 -43.7006 501030.1181 0.0667 -43.7006
ENERGY: 11000 1576.5687 2379.2953 3179.5566 0.0000 -175539.8113 20154.7400 511.0229 0.0000 30752.4722 -116986.1557 298.9972 -147738.6278 -116942.0203 299.3007 80.2890 28.0486 500059.0055 -2.1502 -1.5925
ENERGY: 12000 1550.6725 2310.1955 3202.9349 0.0000 -175762.2154 20180.7680 509.7270 0.0000 31032.4061 -116975.5114 301.7189 -148007.9175 -116925.5634 299.8378 110.9765 88.1296 499786.2222 -4.9660 -4.8856
ENERGY: 13000 1567.6133 2299.8239 3186.2659 0.0000 -175290.0289 19827.4917 531.5034 0.0000 30836.2354 -117041.0953 299.8116 -147877.3307 -116992.3681 299.1501 -39.7897 -36.1526 498884.1192 -5.5081 -5.2084
ENERGY: 14000 1626.2277 2338.5898 3231.5638 0.0000 -175605.2486 20149.7058 501.9414 0.0000 31002.0806 -116755.1396 301.4241 -147757.2202 -116721.4101 300.4410 -120.2631 -32.8339 499153.8090 2.3319 2.5157
ENERGY: 15000 1590.0102 2335.0771 3165.4010 0.0000 -176040.1608 20386.4625 520.7684 0.0000 30770.5968 -117271.8448 299.1734 -148042.4416 -117228.7575 299.9523 166.6290 72.8600 499385.6763 -7.9086 -7.4506
TCL: Setting parameter constraintScaling to 1.25
TCL: Running for 5000 steps
ETITLE: TS BOND ANGLE DIHED IMPRP ELECT VDW BOUNDARY MISC KINETIC TOTAL TEMP POTENTIAL TOTAL3 TEMPAVG PRESSURE GPRESSURE VOLUME PRESSAVG GPRESSAVG
ENERGY: 15000 1590.0102 2335.0771 3165.4010 0.0000 -176040.1608 20386.4625 260.3842 0.0000 30768.5711 -117534.2547 299.1537 -148302.8258 -117488.0283 299.1537 107.4342 17.0654 499385.6763 107.4342 17.0654
ENERGY: 16000 1637.4855 2328.1474 3177.0158 0.0000 -175868.0166 20067.6641 387.4377 0.0000 30795.9509 -117474.3151 299.4199 -148270.2660 -117428.6451 298.9033 -39.9556 -9.4317 498909.7500 2.6444 2.4116
ENERGY: 17000 1601.6533 2366.4600 3208.7776 0.0000 -176295.8947 20409.4939 402.0641 0.0000 30897.1573 -117410.2885 300.4039 -148307.4458 -117359.7055 298.8526 15.5088 62.6170 499278.2119 -0.3533 0.0439
ENERGY: 18000 1605.6955 2350.0704 3195.8193 0.0000 -175805.1926 20155.9147 423.0746 0.0000 30692.3902 -117382.2278 298.4130 -148074.6180 -117332.9651 299.4782 -122.7506 40.3244 498091.8602 -10.7576 -11.2886
ENERGY: 19000 1607.8891 2390.9763 3222.1257 0.0000 -175707.4401 20142.6702 428.7121 0.0000 30779.7544 -117135.3123 299.2625 -147915.0667 -117100.5375 300.1167 0.3108 -3.0646 499994.9784 17.2156 16.8946
ENERGY: 20000 1576.4573 2309.3943 3160.3655 0.0000 -175816.3243 20178.0589 393.5006 0.0000 30806.9654 -117391.5823 299.5270 -148198.5477 -117352.0022 299.2994 -27.0199 36.6733 498632.7932 0.9310 0.8396
TCL: Setting parameter constraintScaling to 0.625
TCL: Running for 5000 steps
ETITLE: TS BOND ANGLE DIHED IMPRP ELECT VDW BOUNDARY MISC KINETIC TOTAL TEMP POTENTIAL TOTAL3 TEMPAVG PRESSURE GPRESSURE VOLUME PRESSAVG GPRESSAVG
ENERGY: 20000 1576.4573 2309.3943 3160.3655 0.0000 -175816.3243 20178.0589 196.7503 0.0000 30804.9141 -117590.3839 299.5071 -148395.2980 -117549.4869 299.5071 -69.4801 -9.4690 498632.7932 -69.4801 -9.4690
ENERGY: 21000 1582.9938 2375.7980 3225.2107 0.0000 -175570.9054 20019.4693 299.0082 0.0000 30567.8992 -117500.5261 297.2027 -148068.4253 -117460.9401 298.3648 66.0565 -8.9746 499723.4975 5.6401 5.5656
ENERGY: 22000 1645.2919 2418.6543 3211.5039 0.0000 -175637.1483 20030.8696 324.4263 0.0000 30645.2428 -117361.1595 297.9546 -148006.4023 -117315.9169 299.5579 -31.0199 79.0139 498577.2780 6.8985 6.8794
ENERGY: 23000 1697.6930 2363.7841 3190.3158 0.0000 -175660.9021 19923.7241 306.2921 0.0000 30868.5787 -117310.5143 300.1261 -148179.0931 -117275.0890 300.2704 -78.6989 -65.4609 496413.5661 -12.2767 -12.8061
ENERGY: 24000 1707.7346 2404.4293 3194.0169 0.0000 -175415.8461 19965.9680 321.5981 0.0000 30830.2527 -116991.8465 299.7534 -147822.0992 -116952.6697 299.7862 -8.5789 -23.6010 497745.6638 1.7098 2.1038
ENERGY: 25000 1672.6927 2355.4984 3216.2251 0.0000 -175670.5759 20040.9689 311.8698 0.0000 30936.0445 -117137.2765 300.7820 -148073.3210 -117082.8364 300.2718 -12.5888 42.1743 497448.0908 3.8826 4.4065
TCL: Setting parameter constraintScaling to 0.3125
TCL: Running for 5000 steps
ETITLE: TS BOND ANGLE DIHED IMPRP ELECT VDW BOUNDARY MISC KINETIC TOTAL TEMP POTENTIAL TOTAL3 TEMPAVG PRESSURE GPRESSURE VOLUME PRESSAVG GPRESSAVG
ENERGY: 25000 1672.6927 2355.4984 3216.2251 0.0000 -175670.5759 20040.9689 155.9349 0.0000 30933.9868 -117295.2691 300.7620 -148229.2559 -117254.2310 300.7620 -27.0493 26.6047 497448.0908 -27.0493 26.6047
ENERGY: 26000 1570.2825 2401.7244 3193.2070 0.0000 -175838.0652 20100.0228 250.3734 0.0000 30715.2007 -117607.2544 298.6348 -148322.4551 -117551.1755 299.2549 -29.7662 -31.0087 498101.2852 7.9195 7.7239
ENERGY: 27000 1610.5920 2473.4374 3207.7704 0.0000 -175553.5062 20068.6253 261.0444 0.0000 30946.5052 -116985.5317 300.8837 -147932.0369 -116943.0923 300.7359 -45.0149 40.1731 498100.3057 0.9679 1.3272
ENERGY: 28000 1609.4439 2446.1472 3193.1825 0.0000 -175618.9873 19998.6193 249.4160 0.0000 30955.5161 -117166.6624 300.9713 -148122.1785 -117120.8737 300.2685 -48.5818 36.1624 497591.2940 -1.7607 -1.5323
ENERGY: 29000 1611.7403 2459.8069 3218.9659 0.0000 -175686.0627 20110.4931 257.1442 0.0000 30625.0883 -117402.8239 297.7587 -148027.9122 -117354.7041 300.3487 9.6081 72.7128 499127.8065 1.2568 1.3850
ENERGY: 30000 1629.8874 2372.9774 3200.7532 0.0000 -176127.6675 20236.5686 251.8550 0.0000 30735.0909 -117700.5350 298.8282 -148435.6259 -117646.1313 298.8554 87.6245 72.0325 498261.0302 2.1536 1.5697
TCL: Setting parameter constraintScaling to 0.15625
TCL: Running for 5000 steps
ETITLE: TS BOND ANGLE DIHED IMPRP ELECT VDW BOUNDARY MISC KINETIC TOTAL TEMP POTENTIAL TOTAL3 TEMPAVG PRESSURE GPRESSURE VOLUME PRESSAVG GPRESSAVG
ENERGY: 30000 1629.8874 2372.9774 3200.7532 0.0000 -176127.6675 20236.5686 125.9275 0.0000 30733.0500 -117828.5034 298.8084 -148561.5534 -117786.5039 298.8084 64.4518 56.8399 498261.0302 64.4518 56.8399
ENERGY: 31000 1638.7105 2428.2975 3245.7501 0.0000 -176586.2746 20485.0535 186.4888 0.0000 30625.9771 -117975.9971 297.7673 -148601.9743 -117936.4947 298.5033 -24.5003 97.1828 498188.7556 0.0579 0.0414
ENERGY: 32000 1630.2572 2405.6915 3227.4332 0.0000 -176163.6138 20139.7300 193.7360 0.0000 30679.1225 -117887.6433 298.2841 -148566.7658 -117839.0084 298.1845 -108.1732 -93.4384 496571.8305 -9.2012 -9.3583
ENERGY: 33000 1647.8718 2416.9389 3243.4647 0.0000 -176227.3835 20183.9938 191.7777 0.0000 30955.0474 -117588.2893 300.9668 -148543.3367 -117541.7841 299.3782 20.5384 8.3856 497362.0465 -0.2694 0.0414
ENERGY: 34000 1585.3447 2362.3719 3208.9929 0.0000 -176001.5395 19984.2389 221.3444 0.0000 30749.1868 -117890.0600 298.9653 -148639.2468 -117847.4339 299.1707 -60.9554 3.2513 497678.3203 4.2987 3.9240
ENERGY: 35000 1598.2339 2332.4575 3191.1933 0.0000 -175961.0329 20068.4393 204.9887 0.0000 30722.4498 -117843.2704 298.7053 -148565.7202 -117803.7305 299.4185 34.1111 -37.5981 496403.4502 8.7143 8.4293
TCL: Setting parameter constraintScaling to 0.078125
TCL: Running for 5000 steps
ETITLE: TS BOND ANGLE DIHED IMPRP ELECT VDW BOUNDARY MISC KINETIC TOTAL TEMP POTENTIAL TOTAL3 TEMPAVG PRESSURE GPRESSURE VOLUME PRESSAVG GPRESSAVG
ENERGY: 35000 1598.2339 2332.4575 3191.1933 0.0000 -175961.0329 20068.4393 102.4944 0.0000 30720.4305 -117947.7840 298.6857 -148668.2145 -117902.3378 298.6857 29.7758 -41.0091 496403.4502 29.7758 -41.0091
ENERGY: 36000 1607.7826 2436.9048 3211.7734 0.0000 -175982.5546 20149.7467 148.3375 0.0000 30734.4580 -117693.5516 298.8221 -148428.0096 -117648.7247 299.1829 33.5647 7.2312 495609.5795 -0.1350 -0.1958
ENERGY: 37000 1637.8846 2430.7991 3210.7615 0.0000 -175600.7786 19965.3143 153.1475 0.0000 30806.0833 -117396.7884 299.5185 -148202.8717 -117357.4845 300.0822 -144.7235 -59.3176 497183.4161 10.8779 11.2591
ENERGY: 38000 1662.4061 2425.1795 3249.0884 0.0000 -175661.1940 19999.2431 164.6802 0.0000 30536.1949 -117624.4016 296.8944 -148160.5966 -117574.7740 300.2742 29.2398 -4.1511 496719.2828 0.8284 1.4981
ENERGY: 39000 1603.4537 2377.8284 3207.1780 0.0000 -176211.8908 20162.2446 171.2692 0.0000 30668.2211 -118021.6959 298.1781 -148689.9170 -117967.4401 298.3238 -20.7283 16.3943 496303.5403 -9.6323 -9.8943
ENERGY: 40000 1586.1167 2432.6134 3214.3930 0.0000 -176080.6638 20166.3346 176.4677 0.0000 30770.3616 -117734.3767 299.1711 -148504.7383 -117691.9837 298.6249 -18.9073 70.7439 497756.9264 5.5352 5.3146
TCL: Setting parameter constraintScaling to 0.0390625
TCL: Running for 5000 steps
ETITLE: TS BOND ANGLE DIHED IMPRP ELECT VDW BOUNDARY MISC KINETIC TOTAL TEMP POTENTIAL TOTAL3 TEMPAVG PRESSURE GPRESSURE VOLUME PRESSAVG GPRESSAVG
ENERGY: 40000 1586.1167 2432.6134 3214.3930 0.0000 -176080.6638 20166.3346 88.2339 0.0000 30768.2721 -117824.7001 299.1508 -148592.9722 -117782.6062 299.1508 -37.7187 52.5819 497756.9264 -37.7187 52.5819
ENERGY: 41000 1629.9274 2403.9518 3246.0921 0.0000 -176254.0449 20165.9934 121.6111 0.0000 30692.9487 -117993.5203 298.4185 -148686.4690 -117948.9254 298.7464 -108.2454 4.5295 498298.2791 9.4054 9.6034
ENERGY: 42000 1584.3954 2436.8054 3184.2223 0.0000 -176478.6627 20192.7150 116.3303 0.0000 30820.2587 -118143.9357 299.6563 -148964.1943 -118085.6219 298.0138 -96.6185 -16.6248 496161.3061 -3.1819 -2.3119
ENERGY: 43000 1613.8108 2426.7913 3192.4299 0.0000 -175828.3703 20015.2662 121.4628 0.0000 30633.0790 -117825.5305 297.8364 -148458.6094 -117795.7439 298.4575 -28.9297 10.1893 495648.4052 -5.1106 -4.8801
ENERGY: 44000 1670.9699 2453.6124 3195.0901 0.0000 -175863.8364 20032.1789 124.6453 0.0000 30818.4559 -117568.8837 299.6387 -148387.3397 -117520.8568 299.8827 -30.3154 36.0674 496940.8479 9.1132 9.2727
ENERGY: 45000 1620.4203 2409.3233 3203.0549 0.0000 -175664.0075 20057.8100 124.5498 0.0000 30878.7618 -117370.0874 300.2251 -148248.8492 -117334.6198 299.5872 -72.4326 -10.6670 496602.6655 0.8589 1.7055
TCL: Setting parameter constraintScaling to 0.01953125
TCL: Running for 5000 steps
ETITLE: TS BOND ANGLE DIHED IMPRP ELECT VDW BOUNDARY MISC KINETIC TOTAL TEMP POTENTIAL TOTAL3 TEMPAVG PRESSURE GPRESSURE VOLUME PRESSAVG GPRESSAVG
ENERGY: 45000 1620.4203 2409.3233 3203.0549 0.0000 -175664.0075 20057.8100 62.2749 0.0000 30876.6922 -117434.4319 300.2050 -148311.1241 -117393.0034 300.2050 -69.6212 -10.4454 496602.6655 -69.6212 -10.4454
ENERGY: 46000 1634.3981 2443.8584 3211.4600 0.0000 -175856.6013 20171.2906 77.4381 0.0000 31098.4691 -117219.6871 302.3612 -148318.1562 -117180.4764 300.3580 -62.5208 49.1837 497777.3638 -0.1885 -0.4229
ENERGY: 47000 1602.8232 2442.7204 3217.8531 0.0000 -175878.1540 19924.2769 85.2484 0.0000 30771.8667 -117833.3652 299.1858 -148605.2319 -117792.4011 299.4692 -61.2845 0.8374 496987.0689 -5.6591 -5.2555
ENERGY: 48000 1546.2438 2407.5622 3198.4150 0.0000 -176313.2756 20224.0863 90.3910 0.0000 30838.4269 -118008.1505 299.8329 -148846.5773 -117962.7682 299.1668 49.2129 73.0466 496630.3678 3.4893 4.0597
ENERGY: 49000 1706.3055 2388.5636 3206.6225 0.0000 -175969.3838 20100.6186 105.5513 0.0000 30823.9361 -117637.7862 299.6920 -148461.7224 -117586.0385 299.3574 -154.9417 -78.3574 497544.7948 6.6829 6.5103
ENERGY: 50000 1624.2893 2386.2046 3229.5515 0.0000 -176084.2407 20221.9230 105.0601 0.0000 30730.5300 -117786.6822 298.7839 -148517.2123 -117734.5495 299.9745 -56.2764 -9.1393 498973.7609 0.0281 -0.5187
TCL: Setting parameter constraintScaling to 0
TCL: Running for 5000 steps
ETITLE: TS BOND ANGLE DIHED IMPRP ELECT VDW BOUNDARY MISC KINETIC TOTAL TEMP POTENTIAL TOTAL3 TEMPAVG PRESSURE GPRESSURE VOLUME PRESSAVG GPRESSAVG
ENERGY: 50000 1624.2893 2386.2046 3229.5515 0.0000 -176084.2407 20221.9230 0.0000 0.0000 30728.5037 -117893.7687 298.7642 -148622.2724 -117850.2678 298.7642 -71.2879 -28.5516 498973.7609 -71.2879 -28.5516
ENERGY: 51000 1671.0984 2423.9702 3229.6927 0.0000 -176376.8863 20337.3495 0.0000 0.0000 30938.7130 -117776.0627 300.8080 -148714.7756 -117724.9221 299.6846 -28.5628 -68.1748 497769.2524 5.4628 5.0210
ENERGY: 52000 1588.9325 2368.1013 3180.4891 0.0000 -175884.1056 19994.7462 0.0000 0.0000 30829.3565 -117922.4800 299.7447 -148751.8365 -117873.0188 299.2913 -30.9920 78.6070 496161.7869 7.9414 7.4918
ENERGY: 53000 1600.7455 2407.6778 3205.4482 0.0000 -176165.4741 20180.7856 0.0000 0.0000 31010.7765 -117760.0406 301.5086 -148770.8171 -117713.4237 299.6113 108.9540 33.9144 497413.3994 5.3720 5.4287
ENERGY: 54000 1681.9174 2372.0643 3197.3759 0.0000 -175869.2382 19934.5224 0.0000 0.0000 30949.0971 -117734.2611 300.9089 -148683.3581 -117697.7050 299.3505 -81.3569 8.6985 497281.9990 -4.7815 -4.5919
ENERGY: 55000 1583.7726 2421.2913 3220.6569 0.0000 -175958.0852 19945.5996 0.0000 0.0000 30806.9869 -117979.7781 299.5272 -148786.7649 -117922.7792 300.1016 57.1307 72.0953 495829.6228 -9.7990 -10.1756
