Info: SIMULATION PARAMETERS:
Info: TIMESTEP               2
Info: NUMBER OF STEPS        0
Info: STEPS PER CYCLE        10
Info: PERIODIC CELL BASIS 1  72.449 0 0
Info: PERIODIC CELL BASIS 2  0 93.247 0
Info: PERIODIC CELL BASIS 3  0 0 79.185
Info: PERIODIC CELL CENTER   -0.248 -0.156 -0.047
Info: WRAPPING WATERS AROUND PERIODIC BOUNDARIES ON OUTPUT.
Info: WRAPPING ALL CLUSTERS AROUND PERIODIC BOUNDARIES ON OUTPUT.
Info: FIRST LDB TIMESTEP     50
Info: LAST LDB TIMESTEP     -1
Info: HOM BACKGROUND SCALING 1
Info: PME BACKGROUND SCALING 1
Info: MIN ATOMS PER PATCH    40
Info: INITIAL TEMPERATURE    0
Info: CENTER OF MASS MOVING INITIALLY? NO
Info: DIELECTRIC             1
Info: EXCLUDE                SCALED ONE-FOUR
Info: 1-4 ELECTROSTATICS SCALED BY 0.833333
Info: MODIFIED 1-4 VDW PARAMETERS WILL BE USED
Info: NO DCD TRAJECTORY OUTPUT
Info: NO EXTENDED SYSTEM TRAJECTORY OUTPUT
Info: NO VELOCITY DCD OUTPUT
Info: NO FORCE DCD OUTPUT
Info: OUTPUT FILENAME        ../replicas/rep34/equilibration/eq0
Info: NO RESTART FILE
Info: SWITCHING ACTIVE
Info: SWITCHING ON           10
Info: SWITCHING OFF          12
Info: PAIRLIST DISTANCE      13.5
Info: PAIRLIST SHRINK RATE   0.01
Info: PAIRLIST GROW RATE     0.01
Info: PAIRLIST TRIGGER       0.3
Info: PAIRLISTS PER CYCLE    2
Info: PAIRLISTS ENABLED
Info: MARGIN                 0
Info: HYDROGEN GROUP CUTOFF  2.5
Info: PATCH DIMENSION        16
Info: ENERGY OUTPUT STEPS    500
Info: CROSSTERM ENERGY INCLUDED IN DIHEDRAL
Info: TIMING OUTPUT STEPS    5000
Info: PRESSURE OUTPUT STEPS  500
Info: HARMONIC CONSTRAINTS ACTIVE
Info: HARMONIC CONS EXP      2
Info: HARMONIC CONS SCALING  10
Info: CONJUGATE GRADIENT MINIMIZATION ACTIVE
Info: LINE MINIMIZATION GOAL = 0.001
Info: BABY STEP SIZE = 0.01
Info: TINY STEP SIZE = 1e-06
Info: PARTICLE MESH EWALD (PME) ACTIVE
Info: PME TOLERANCE               1e-06
Info: PME EWALD COEFFICIENT       0.257952
Info: PME INTERPOLATION ORDER     4
Info: PME GRID DIMENSIONS         80 96 80
Info: PME MAXIMUM GRID SPACING    1
Info: FULL ELECTROSTATIC EVALUATION FREQUENCY      2
Info: USING VERLET I (r-RESPA) MTS SCHEME.
Info: C1 SPLITTING OF LONG RANGE ELECTROSTATICS
Info: PLACING ATOMS IN PATCHES BY HYDROGEN GROUPS
Info: RIGID BONDS TO HYDROGEN : ALL
Info:         ERROR TOLERANCE : 1e-05
Info:          MAX ITERATIONS : 100
Info: RIGID WATER USING SETTLE ALGORITHM
Info: RANDOM NUMBER SEED     1503696780
Info: USE HYDROGEN BONDS?    NO
Info: Using AMBER format force field!
Info: AMBER PARM FILE        ../build/complex.top
Info: COORDINATE PDB         ../build/complex.pdb
Info: Exclusions in PARM file will be ignored!
Info: SCNB (VDW SCALING)     2
Info: USING ARITHMETIC MEAN TO COMBINE L-J SIGMA PARAMETERS
Info: SUMMARY OF PARAMETERS:
Info: 71 BONDS
Info: 145 ANGLES
Info: 76 DIHEDRAL
Info: 0 IMPROPER
Info: 0 CROSSTERM
Info: 0 VDW
Info: 190 VDW_PAIRS
Info: 0 NBTHOLE_PAIRS
Info: STRUCTURE SUMMARY:
Info: 49394 ATOMS
Info: 49448 BONDS
Info: 8698 ANGLES
Info: 18780 DIHEDRALS
Info: 0 IMPROPERS
Info: 0 CROSSTERMS
Info: 0 EXCLUSIONS
Info: 2336 CONSTRAINTS
Info: 47058 RIGID BONDS
Info: 101124 DEGREES OF FREEDOM
Info: 17225 HYDROGEN GROUPS
Info: 4 ATOMS IN LARGEST HYDROGEN GROUP
Info: 17225 MIGRATION GROUPS
Info: 4 ATOMS IN LARGEST MIGRATION GROUP
Info: TOTAL MASS = 301478 amu
Info: TOTAL CHARGE = 1.00115e-05 e
Info: MASS DENSITY = 0.935846 g/cm^3
Info: ATOM DENSITY = 0.0923345 atoms/A^3
Info: ADDED 70656 IMPLICIT EXCLUSIONS
Info: NONBONDED TABLE R-SQUARED SPACING: 0.0625
Info: NONBONDED TABLE SIZE: 769 POINTS
Info: REMOVING COM VELOCITY 0 0 0
TCL: Minimizing for 100 steps
ETITLE: TS BOND ANGLE DIHED IMPRP ELECT VDW BOUNDARY MISC KINETIC TOTAL TEMP POTENTIAL TOTAL3 TEMPAVG PRESSURE GPRESSURE VOLUME PRESSAVG GPRESSAVG
ENERGY: 0 155.4176 1012.2698 2855.7272 0.0000 -154496.7910 207729.2052 0.0468 0.0000 0.0000 57255.8756 0.0000 57255.8756 57255.8756 0.0000 116350.2532 86546.1670 534946.2959 116350.2532 86546.1670
ENERGY: 20 304.7557 935.7912 2893.4663 0.0000 -158672.9409 17936.6592 143.9455 0.0000 0.0000 -136458.3230 0.0000 -136458.3230 -136458.3230 0.0000 16523.9385 -239.4561 534946.2959 16523.9385 -239.4561
ENERGY: 40 198.7454 799.5729 2896.9273 0.0000 -162811.4529 16417.9537 221.3030 0.0000 0.0000 -142276.9506 0.0000 -142276.9506 -142276.9506 0.0000 15011.2703 -2135.4698 534946.2959 15011.2703 -2135.4698
ENERGY: 60 130.5282 715.3440 2898.2166 0.0000 -167496.1573 15446.7539 315.2796 0.0000 0.0000 -147990.0351 0.0000 -147990.0351 -147990.0351 0.0000 13793.8836 -3799.3988 534946.2959 13793.8836 -3799.3988
ENERGY: 80 431.2724 765.6306 2904.3787 0.0000 -169937.5335 15121.1519 372.0123 0.0000 0.0000 -150343.0876 0.0000 -150343.0876 -150343.0876 0.0000 13270.3299 -4577.2459 534946.2959 13270.3299 -4577.2459
ENERGY: 100 129.7135 708.0649 2904.2781 0.0000 -171050.0653 15018.6537 384.2001 0.0000 0.0000 -151905.1551 0.0000 -151905.1551 -151905.1551 0.0000 13092.9130 -4843.6311 534946.2959 13092.9130 -4843.6311
TCL: Setting parameter constraintScaling to 5.0
TCL: Minimizing for 100 steps
ETITLE: TS BOND ANGLE DIHED IMPRP ELECT VDW BOUNDARY MISC KINETIC TOTAL TEMP POTENTIAL TOTAL3 TEMPAVG PRESSURE GPRESSURE VOLUME PRESSAVG GPRESSAVG
ENERGY: 100 129.7135 708.0649 2904.2781 0.0000 -171050.0653 15018.6537 192.1000 0.0000 0.0000 -152097.2551 0.0000 -152097.2551 -152097.2551 0.0000 13703.5082 -22944.4541 534946.2959 13703.5082 -22944.4541
ENERGY: 120 118.6817 680.2875 2909.9066 0.0000 -172396.3099 14830.1208 259.9548 0.0000 0.0000 -153597.3585 0.0000 -153597.3585 -153597.3585 0.0000 13320.9481 -4756.3061 534946.2959 13320.9481 -4756.3061
ENERGY: 140 109.1480 671.1470 2912.0863 0.0000 -174830.2429 14716.1440 337.7302 0.0000 0.0000 -156083.9873 0.0000 -156083.9873 -156083.9873 0.0000 12908.9617 -5423.1417 534946.2959 12908.9617 -5423.1417
ENERGY: 160 125.8503 667.1505 2914.1925 0.0000 -175967.0290 14735.1337 362.9183 0.0000 0.0000 -157161.7837 0.0000 -157161.7837 -157161.7837 0.0000 12806.8968 -5644.5112 534946.2959 12806.8968 -5644.5112
ENERGY: 180 303.4955 659.6802 2917.2966 0.0000 -177408.7038 14815.0141 395.3824 0.0000 0.0000 -158317.8351 0.0000 -158317.8351 -158317.8351 0.0000 12699.3154 -5901.5912 534946.2959 12699.3154 -5901.5912
ENERGY: 200 109.2111 628.4750 2923.3588 0.0000 -179543.9930 15071.1797 441.8857 0.0000 0.0000 -160369.8827 0.0000 -160369.8827 -160369.8827 0.0000 12659.9886 -6162.0085 534946.2959 12659.9886 -6162.0085
TCL: Setting parameter constraintScaling to 2.5
TCL: Minimizing for 100 steps
ETITLE: TS BOND ANGLE DIHED IMPRP ELECT VDW BOUNDARY MISC KINETIC TOTAL TEMP POTENTIAL TOTAL3 TEMPAVG PRESSURE GPRESSURE VOLUME PRESSAVG GPRESSAVG
ENERGY: 200 109.2111 628.4750 2923.3588 0.0000 -179543.9930 15071.1797 220.9428 0.0000 0.0000 -160590.8255 0.0000 -160590.8255 -160590.8255 0.0000 13208.4152 -25281.1660 534946.2959 13208.4152 -25281.1660
ENERGY: 220 278.9014 654.0084 2925.3487 0.0000 -180409.7274 15109.9949 289.1482 0.0000 0.0000 -161152.3259 0.0000 -161152.3259 -161152.3259 0.0000 12996.8882 -5926.2482 534946.2959 12996.8882 -5926.2482
ENERGY: 240 252.4162 639.3414 2923.2942 0.0000 -181408.6849 15262.7951 324.6051 0.0000 0.0000 -162006.2328 0.0000 -162006.2328 -162006.2328 0.0000 12954.6968 -6066.7859 534946.2959 12954.6968 -6066.7859
ENERGY: 260 307.4880 658.3430 2922.9572 0.0000 -183630.0139 15757.9152 410.6752 0.0000 0.0000 -163572.6354 0.0000 -163572.6354 -163572.6354 0.0000 12990.4184 -6282.1654 534946.2959 12990.4184 -6282.1654
ENERGY: 280 147.6214 670.9181 2920.5060 0.0000 -184538.0830 16018.9311 428.6353 0.0000 0.0000 -164351.4711 0.0000 -164351.4711 -164351.4711 0.0000 13097.8704 -6286.1744 534946.2959 13097.8704 -6286.1744
ENERGY: 300 183.0753 671.8115 2923.0887 0.0000 -185694.2652 16376.1868 426.9542 0.0000 0.0000 -165113.1488 0.0000 -165113.1488 -165113.1488 0.0000 13250.1963 -6245.0930 534946.2959 13250.1963 -6245.0930
TCL: Setting parameter constraintScaling to 1.25
TCL: Minimizing for 100 steps
ETITLE: TS BOND ANGLE DIHED IMPRP ELECT VDW BOUNDARY MISC KINETIC TOTAL TEMP POTENTIAL TOTAL3 TEMPAVG PRESSURE GPRESSURE VOLUME PRESSAVG GPRESSAVG
ENERGY: 300 183.0753 671.8115 2923.0887 0.0000 -185694.2652 16376.1868 213.4771 0.0000 0.0000 -165326.6259 0.0000 -165326.6259 -165326.6259 0.0000 13665.0621 -26244.8634 534946.2959 13665.0621 -26244.8634
ENERGY: 320 175.6998 672.4178 2915.1433 0.0000 -186227.5098 16485.0349 252.5491 0.0000 0.0000 -165726.6648 0.0000 -165726.6648 -165726.6648 0.0000 13635.9500 -5928.7852 534946.2959 13635.9500 -5928.7852
ENERGY: 340 142.2179 649.7562 2911.1700 0.0000 -187201.1635 16746.0099 310.1396 0.0000 0.0000 -166441.8699 0.0000 -166441.8699 -166441.8699 0.0000 13618.4402 -6042.8259 534946.2959 13618.4402 -6042.8259
ENERGY: 360 196.5012 694.7893 2914.4571 0.0000 -188747.5212 17251.3794 391.3413 0.0000 0.0000 -167299.0530 0.0000 -167299.0530 -167299.0530 0.0000 13712.3523 -6120.3389 534946.2959 13712.3523 -6120.3389
ENERGY: 380 216.7523 662.4749 2901.4842 0.0000 -190573.1446 17982.6255 453.1658 0.0000 0.0000 -168356.6420 0.0000 -168356.6420 -168356.6420 0.0000 13979.3782 -6052.3597 534946.2959 13979.3782 -6052.3597
ENERGY: 400 149.1316 675.7876 2900.4612 0.0000 -190946.1361 18112.2223 421.3531 0.0000 0.0000 -168687.1803 0.0000 -168687.1803 -168687.1803 0.0000 14147.0592 -5958.9077 534946.2959 14147.0592 -5958.9077
TCL: Setting parameter constraintScaling to 0.625
TCL: Minimizing for 100 steps
ETITLE: TS BOND ANGLE DIHED IMPRP ELECT VDW BOUNDARY MISC KINETIC TOTAL TEMP POTENTIAL TOTAL3 TEMPAVG PRESSURE GPRESSURE VOLUME PRESSAVG GPRESSAVG
ENERGY: 400 149.1316 675.7876 2900.4612 0.0000 -190946.1361 18112.2223 210.6766 0.0000 0.0000 -168897.8568 0.0000 -168897.8568 -168897.8568 0.0000 14459.6775 -26696.5878 534946.2959 14459.6775 -26696.5878
ENERGY: 420 145.6750 648.0591 2896.6914 0.0000 -191165.6960 18167.9077 224.0511 0.0000 0.0000 -169083.3117 0.0000 -169083.3117 -169083.3117 0.0000 14409.7869 -5700.5105 534946.2959 14409.7869 -5700.5105
ENERGY: 440 159.3737 651.7270 2890.1240 0.0000 -192433.2919 18575.0515 272.6216 0.0000 0.0000 -169884.3941 0.0000 -169884.3941 -169884.3941 0.0000 14512.3873 -5733.1576 534946.2959 14512.3873 -5733.1576
ENERGY: 460 189.9013 688.7209 2887.9099 0.0000 -193359.7752 18952.4976 278.9986 0.0000 0.0000 -170361.7468 0.0000 -170361.7468 -170361.7468 0.0000 14746.4421 -5620.2617 534946.2959 14746.4421 -5620.2617
ENERGY: 480 153.9036 657.6416 2889.9067 0.0000 -194861.8684 19564.6353 323.2746 0.0000 0.0000 -171272.5066 0.0000 -171272.5066 -171272.5066 0.0000 15007.4822 -5523.3226 534946.2959 15007.4822 -5523.3226
ENERGY: 500 145.5279 638.5828 2876.5220 0.0000 -195599.1361 19895.5905 345.2880 0.0000 0.0000 -171697.6247 0.0000 -171697.6247 -171697.6247 0.0000 15146.9039 -5468.0369 534946.2959 15146.9039 -5468.0369
TCL: Setting parameter constraintScaling to 0.3125
TCL: Minimizing for 100 steps
ETITLE: TS BOND ANGLE DIHED IMPRP ELECT VDW BOUNDARY MISC KINETIC TOTAL TEMP POTENTIAL TOTAL3 TEMPAVG PRESSURE GPRESSURE VOLUME PRESSAVG GPRESSAVG
ENERGY: 500 145.5279 638.5828 2876.5220 0.0000 -195599.1360 19895.5905 172.6440 0.0000 0.0000 -171870.2687 0.0000 -171870.2687 -171870.2687 0.0000 15357.1986 -26890.6595 534946.2959 15357.1986 -26890.6595
ENERGY: 520 344.5996 664.8844 2867.6463 0.0000 -196146.5031 20048.6850 192.6265 0.0000 0.0000 -172028.0612 0.0000 -172028.0612 -172028.0612 0.0000 15384.6606 -5304.9796 534946.2959 15384.6606 -5304.9796
ENERGY: 540 177.6078 647.6891 2867.0068 0.0000 -196520.8386 20161.3296 201.8018 0.0000 0.0000 -172465.4035 0.0000 -172465.4035 -172465.4035 0.0000 15438.0046 -5292.0279 534946.2959 15438.0046 -5292.0279
ENERGY: 560 151.5717 643.2621 2863.8416 0.0000 -197195.8712 20395.5442 216.1237 0.0000 0.0000 -172925.5279 0.0000 -172925.5279 -172925.5279 0.0000 15529.5210 -5274.5782 534946.2959 15529.5210 -5274.5782
ENERGY: 580 153.4752 632.1078 2861.7721 0.0000 -197458.4768 20499.6236 219.4879 0.0000 0.0000 -173092.0104 0.0000 -173092.0104 -173092.0104 0.0000 15534.0560 -5281.2374 534946.2959 15534.0560 -5281.2374
ENERGY: 600 211.0226 688.5116 2864.4173 0.0000 -198702.3473 20959.5846 241.5061 0.0000 0.0000 -173737.3051 0.0000 -173737.3051 -173737.3051 0.0000 15745.7421 -5219.0603 534946.2959 15745.7421 -5219.0603
TCL: Setting parameter constraintScaling to 0.15625
TCL: Minimizing for 100 steps
ETITLE: TS BOND ANGLE DIHED IMPRP ELECT VDW BOUNDARY MISC KINETIC TOTAL TEMP POTENTIAL TOTAL3 TEMPAVG PRESSURE GPRESSURE VOLUME PRESSAVG GPRESSAVG
ENERGY: 600 211.0226 688.5116 2864.4173 0.0000 -198702.3473 20959.5846 120.7530 0.0000 0.0000 -173858.0582 0.0000 -173858.0582 -173858.0582 0.0000 15872.7143 -27109.1888 534946.2959 15872.7143 -27109.1888
ENERGY: 620 155.5225 642.2369 2853.4255 0.0000 -198802.0243 20995.7808 121.8446 0.0000 0.0000 -174033.2141 0.0000 -174033.2141 -174033.2141 0.0000 15923.7013 -5060.2508 534946.2959 15923.7013 -5060.2508
ENERGY: 640 224.3022 679.0873 2852.1099 0.0000 -199288.6144 21176.5059 133.0841 0.0000 0.0000 -174223.5249 0.0000 -174223.5249 -174223.5249 0.0000 15976.5217 -5068.1234 534946.2959 15976.5217 -5068.1234
ENERGY: 660 154.3675 643.6265 2847.6720 0.0000 -199444.0196 21221.8582 135.4312 0.0000 0.0000 -174441.0642 0.0000 -174441.0642 -174441.0642 0.0000 15988.2883 -5064.3630 534946.2959 15988.2883 -5064.3630
ENERGY: 680 171.3904 664.9778 2852.9482 0.0000 -199702.1254 21296.5255 138.4326 0.0000 0.0000 -174577.8510 0.0000 -174577.8510 -174577.8510 0.0000 16027.8596 -5061.7978 534946.2959 16027.8596 -5061.7978
ENERGY: 700 177.4600 667.5285 2851.3650 0.0000 -200429.2238 21576.4734 146.7211 0.0000 0.0000 -175009.6758 0.0000 -175009.6758 -175009.6758 0.0000 16205.5090 -4974.8032 534946.2959 16205.5090 -4974.8032
TCL: Setting parameter constraintScaling to 0.078125
TCL: Minimizing for 100 steps
ETITLE: TS BOND ANGLE DIHED IMPRP ELECT VDW BOUNDARY MISC KINETIC TOTAL TEMP POTENTIAL TOTAL3 TEMPAVG PRESSURE GPRESSURE VOLUME PRESSAVG GPRESSAVG
ENERGY: 700 177.4600 667.5285 2851.3650 0.0000 -200429.2238 21576.4734 73.3605 0.0000 0.0000 -175083.0364 0.0000 -175083.0364 -175083.0364 0.0000 16277.2738 -27125.1040 534946.2959 16277.2738 -27125.1040
ENERGY: 720 156.9054 641.6547 2842.2211 0.0000 -200572.4654 21623.3961 75.8946 0.0000 0.0000 -175232.3935 0.0000 -175232.3935 -175232.3935 0.0000 16245.2847 -4938.6921 534946.2959 16245.2847 -4938.6921
ENERGY: 740 178.5878 670.4971 2836.5714 0.0000 -200891.6630 21749.2740 80.7563 0.0000 0.0000 -175375.9764 0.0000 -175375.9764 -175375.9764 0.0000 16286.0634 -4937.4393 534946.2959 16286.0634 -4937.4393
ENERGY: 760 215.4292 684.1537 2841.3606 0.0000 -201293.7458 21892.7200 83.6597 0.0000 0.0000 -175576.4226 0.0000 -175576.4226 -175576.4226 0.0000 16334.7730 -4918.9015 534946.2959 16334.7730 -4918.9015
ENERGY: 780 172.9472 669.7169 2841.9905 0.0000 -201735.5209 22068.8582 85.5559 0.0000 0.0000 -175896.4522 0.0000 -175896.4522 -175896.4522 0.0000 16524.0903 -4818.5566 534946.2959 16524.0903 -4818.5566
ENERGY: 800 170.3049 664.4429 2827.3424 0.0000 -202980.4690 22610.3869 99.0919 0.0000 0.0000 -176608.8999 0.0000 -176608.8999 -176608.8999 0.0000 16736.6080 -4740.8730 534946.2959 16736.6080 -4740.8730
TCL: Setting parameter constraintScaling to 0.0390625
TCL: Minimizing for 100 steps
ETITLE: TS BOND ANGLE DIHED IMPRP ELECT VDW BOUNDARY MISC KINETIC TOTAL TEMP POTENTIAL TOTAL3 TEMPAVG PRESSURE GPRESSURE VOLUME PRESSAVG GPRESSAVG
ENERGY: 800 170.3049 664.4429 2827.3424 0.0000 -202980.4690 22610.3869 49.5460 0.0000 0.0000 -176658.4459 0.0000 -176658.4459 -176658.4459 0.0000 16779.5013 -27232.1033 534946.2959 16779.5013 -27232.1033
ENERGY: 820 162.1986 656.0173 2826.5166 0.0000 -203265.2079 22713.0148 51.4480 0.0000 0.0000 -176856.0127 0.0000 -176856.0127 -176856.0127 0.0000 16837.0698 -4673.5776 534946.2959 16837.0698 -4673.5776
ENERGY: 840 303.2430 716.4013 2821.0237 0.0000 -204016.5608 23039.1006 57.3600 0.0000 0.0000 -177079.4323 0.0000 -177079.4323 -177079.4323 0.0000 16962.8234 -4640.8543 534946.2959 16962.8234 -4640.8543
ENERGY: 860 165.3010 659.6900 2819.9093 0.0000 -203999.8692 23004.4148 55.4815 0.0000 0.0000 -177295.0726 0.0000 -177295.0726 -177295.0726 0.0000 16986.3604 -4615.5640 534946.2959 16986.3604 -4615.5640
ENERGY: 880 175.5096 657.8177 2825.4495 0.0000 -204365.9914 23183.6633 55.9143 0.0000 0.0000 -177467.6371 0.0000 -177467.6371 -177467.6371 0.0000 17060.4273 -4573.7453 534946.2959 17060.4273 -4573.7453
ENERGY: 900 162.2622 657.6330 2816.6121 0.0000 -204515.6490 23223.3547 57.8298 0.0000 0.0000 -177597.9571 0.0000 -177597.9571 -177597.9571 0.0000 17062.9957 -4587.5110 534946.2959 17062.9957 -4587.5110
TCL: Setting parameter constraintScaling to 0.01953125
TCL: Minimizing for 100 steps
ETITLE: TS BOND ANGLE DIHED IMPRP ELECT VDW BOUNDARY MISC KINETIC TOTAL TEMP POTENTIAL TOTAL3 TEMPAVG PRESSURE GPRESSURE VOLUME PRESSAVG GPRESSAVG
ENERGY: 900 162.2622 657.6330 2816.6121 0.0000 -204515.6490 23223.3547 28.9149 0.0000 0.0000 -177626.8720 0.0000 -177626.8720 -177626.8720 0.0000 17086.8988 -27293.6034 534946.2959 17086.8988 -27293.6034
ENERGY: 920 161.1166 657.5228 2814.4349 0.0000 -204605.6103 23259.7933 29.2306 0.0000 0.0000 -177683.5121 0.0000 -177683.5121 -177683.5121 0.0000 17124.4422 -4545.1191 534946.2959 17124.4422 -4545.1191
ENERGY: 940 189.7721 666.3352 2813.7813 0.0000 -204933.9732 23402.1889 30.5854 0.0000 0.0000 -177831.3102 0.0000 -177831.3102 -177831.3102 0.0000 17178.7547 -4524.5926 534946.2959 17178.7547 -4524.5926
ENERGY: 960 224.9991 667.2898 2810.1717 0.0000 -205297.5491 23562.8853 31.8922 0.0000 0.0000 -178000.3109 0.0000 -178000.3109 -178000.3109 0.0000 17254.4484 -4493.1633 534946.2959 17254.4484 -4493.1633
ENERGY: 980 163.5115 654.8104 2811.7094 0.0000 -205373.3781 23594.4641 31.8986 0.0000 0.0000 -178116.9841 0.0000 -178116.9841 -178116.9841 0.0000 17281.8309 -4466.5966 534946.2959 17281.8309 -4466.5966
ENERGY: 1000 179.2680 680.0002 2814.8322 0.0000 -205833.3904 23802.5718 33.0923 0.0000 0.0000 -178323.6259 0.0000 -178323.6259 -178323.6259 0.0000 17412.3200 -4407.6288 534946.2959 17412.3200 -4407.6288
TCL: Setting parameter constraintScaling to 0
TCL: Minimizing for 5000 steps
ETITLE: TS BOND ANGLE DIHED IMPRP ELECT VDW BOUNDARY MISC KINETIC TOTAL TEMP POTENTIAL TOTAL3 TEMPAVG PRESSURE GPRESSURE VOLUME PRESSAVG GPRESSAVG
ENERGY: 1000 179.2680 680.0002 2814.8322 0.0000 -205833.3904 23802.5718 0.0000 0.0000 0.0000 -178356.7182 0.0000 -178356.7182 -178356.7182 0.0000 17438.4880 -27255.9693 534946.2959 17438.4880 -27255.9693
ENERGY: 2000 168.2687 660.6073 2800.4056 0.0000 -214887.1679 27744.4128 0.0000 0.0000 0.0000 -183513.4735 0.0000 -183513.4735 -183513.4735 0.0000 19499.6718 -3326.9058 534946.2959 19499.6718 -3326.9058
ENERGY: 3000 205.4060 672.4126 2796.4105 0.0000 -217580.1801 28910.3275 0.0000 0.0000 0.0000 -184995.6235 0.0000 -184995.6235 -184995.6235 0.0000 20127.8034 -2971.5874 534946.2959 20127.8034 -2971.5874
ENERGY: 4000 166.5945 662.9283 2788.1128 0.0000 -218805.2993 29447.8452 0.0000 0.0000 0.0000 -185739.8184 0.0000 -185739.8184 -185739.8184 0.0000 20420.7960 -2805.0535 534946.2959 20420.7960 -2805.0535
ENERGY: 5000 166.2480 665.5050 2782.9731 0.0000 -219547.3712 29758.8787 0.0000 0.0000 0.0000 -186173.7664 0.0000 -186173.7664 -186173.7664 0.0000 20580.5227 -2721.9048 534946.2959 20580.5227 -2721.9048
ENERGY: 6000 165.8669 665.3979 2782.3794 0.0000 -220101.7002 30016.7704 0.0000 0.0000 0.0000 -186471.2856 0.0000 -186471.2856 -186471.2856 0.0000 20717.3398 -2639.9188 534946.2959 20717.3398 -2639.9188
