Info: SIMULATION PARAMETERS:
Info: TIMESTEP               2
Info: NUMBER OF STEPS        0
Info: STEPS PER CYCLE        10
Info: PERIODIC CELL BASIS 1  72.449 0 0
Info: PERIODIC CELL BASIS 2  0 93.247 0
Info: PERIODIC CELL BASIS 3  0 0 79.185
Info: PERIODIC CELL CENTER   -0.248 -0.156 -0.047
Info: WRAPPING WATERS AROUND PERIODIC BOUNDARIES ON OUTPUT.
Info: WRAPPING ALL CLUSTERS AROUND PERIODIC BOUNDARIES ON OUTPUT.
Info: FIRST LDB TIMESTEP     50
Info: LAST LDB TIMESTEP     -1
Info: HOM BACKGROUND SCALING 1
Info: PME BACKGROUND SCALING 1
Info: MIN ATOMS PER PATCH    40
Info: INITIAL TEMPERATURE    0
Info: CENTER OF MASS MOVING INITIALLY? NO
Info: DIELECTRIC             1
Info: EXCLUDE                SCALED ONE-FOUR
Info: 1-4 ELECTROSTATICS SCALED BY 0.833333
Info: MODIFIED 1-4 VDW PARAMETERS WILL BE USED
Info: NO DCD TRAJECTORY OUTPUT
Info: NO EXTENDED SYSTEM TRAJECTORY OUTPUT
Info: NO VELOCITY DCD OUTPUT
Info: NO FORCE DCD OUTPUT
Info: OUTPUT FILENAME        ../replicas/rep51/equilibration/eq0
Info: NO RESTART FILE
Info: SWITCHING ACTIVE
Info: SWITCHING ON           10
Info: SWITCHING OFF          12
Info: PAIRLIST DISTANCE      13.5
Info: PAIRLIST SHRINK RATE   0.01
Info: PAIRLIST GROW RATE     0.01
Info: PAIRLIST TRIGGER       0.3
Info: PAIRLISTS PER CYCLE    2
Info: PAIRLISTS ENABLED
Info: MARGIN                 0
Info: HYDROGEN GROUP CUTOFF  2.5
Info: PATCH DIMENSION        16
Info: ENERGY OUTPUT STEPS    500
Info: CROSSTERM ENERGY INCLUDED IN DIHEDRAL
Info: TIMING OUTPUT STEPS    5000
Info: PRESSURE OUTPUT STEPS  500
Info: HARMONIC CONSTRAINTS ACTIVE
Info: HARMONIC CONS EXP      2
Info: HARMONIC CONS SCALING  10
Info: CONJUGATE GRADIENT MINIMIZATION ACTIVE
Info: LINE MINIMIZATION GOAL = 0.001
Info: BABY STEP SIZE = 0.01
Info: TINY STEP SIZE = 1e-06
Info: PARTICLE MESH EWALD (PME) ACTIVE
Info: PME TOLERANCE               1e-06
Info: PME EWALD COEFFICIENT       0.257952
Info: PME INTERPOLATION ORDER     4
Info: PME GRID DIMENSIONS         80 96 80
Info: PME MAXIMUM GRID SPACING    1
Info: FULL ELECTROSTATIC EVALUATION FREQUENCY      2
Info: USING VERLET I (r-RESPA) MTS SCHEME.
Info: C1 SPLITTING OF LONG RANGE ELECTROSTATICS
Info: PLACING ATOMS IN PATCHES BY HYDROGEN GROUPS
Info: RIGID BONDS TO HYDROGEN : ALL
Info:         ERROR TOLERANCE : 1e-05
Info:          MAX ITERATIONS : 100
Info: RIGID WATER USING SETTLE ALGORITHM
Info: RANDOM NUMBER SEED     1503690788
Info: USE HYDROGEN BONDS?    NO
Info: Using AMBER format force field!
Info: AMBER PARM FILE        ../build/complex.top
Info: COORDINATE PDB         ../build/complex.pdb
Info: Exclusions in PARM file will be ignored!
Info: SCNB (VDW SCALING)     2
Info: USING ARITHMETIC MEAN TO COMBINE L-J SIGMA PARAMETERS
Info: SUMMARY OF PARAMETERS:
Info: 71 BONDS
Info: 145 ANGLES
Info: 76 DIHEDRAL
Info: 0 IMPROPER
Info: 0 CROSSTERM
Info: 0 VDW
Info: 190 VDW_PAIRS
Info: 0 NBTHOLE_PAIRS
Info: STRUCTURE SUMMARY:
Info: 49394 ATOMS
Info: 49448 BONDS
Info: 8698 ANGLES
Info: 18780 DIHEDRALS
Info: 0 IMPROPERS
Info: 0 CROSSTERMS
Info: 0 EXCLUSIONS
Info: 2336 CONSTRAINTS
Info: 47058 RIGID BONDS
Info: 101124 DEGREES OF FREEDOM
Info: 17225 HYDROGEN GROUPS
Info: 4 ATOMS IN LARGEST HYDROGEN GROUP
Info: 17225 MIGRATION GROUPS
Info: 4 ATOMS IN LARGEST MIGRATION GROUP
Info: TOTAL MASS = 301478 amu
Info: TOTAL CHARGE = 1.00115e-05 e
Info: MASS DENSITY = 0.935846 g/cm^3
Info: ATOM DENSITY = 0.0923345 atoms/A^3
Info: ADDED 70656 IMPLICIT EXCLUSIONS
Info: NONBONDED TABLE R-SQUARED SPACING: 0.0625
Info: NONBONDED TABLE SIZE: 769 POINTS
Info: REMOVING COM VELOCITY 0 0 0
TCL: Minimizing for 100 steps
ETITLE: TS BOND ANGLE DIHED IMPRP ELECT VDW BOUNDARY MISC KINETIC TOTAL TEMP POTENTIAL TOTAL3 TEMPAVG PRESSURE GPRESSURE VOLUME PRESSAVG GPRESSAVG
ENERGY: 0 155.4176 1012.2698 2855.7272 0.0000 -154496.7910 207729.2052 0.0468 0.0000 0.0000 57255.8756 0.0000 57255.8756 57255.8756 0.0000 116350.2532 86546.1670 534946.2959 116350.2532 86546.1670
ENERGY: 20 304.7523 935.7909 2893.4663 0.0000 -158672.9384 17936.6605 143.9453 0.0000 0.0000 -136458.3232 0.0000 -136458.3232 -136458.3232 0.0000 16523.9399 -239.4545 534946.2959 16523.9399 -239.4545
ENERGY: 40 198.7401 799.5720 2896.9273 0.0000 -162811.4548 16417.9532 221.3029 0.0000 0.0000 -142276.9593 0.0000 -142276.9593 -142276.9593 0.0000 15011.2698 -2135.4704 534946.2959 15011.2698 -2135.4704
ENERGY: 60 130.5287 715.3440 2898.2165 0.0000 -167496.1551 15446.7543 315.2795 0.0000 0.0000 -147990.0321 0.0000 -147990.0321 -147990.0321 0.0000 13793.8842 -3799.3981 534946.2959 13793.8842 -3799.3981
ENERGY: 80 431.2777 765.6317 2904.3781 0.0000 -169937.5176 15121.1538 372.0119 0.0000 0.0000 -150343.0644 0.0000 -150343.0644 -150343.0644 0.0000 13270.3341 -4577.2415 534946.2959 13270.3341 -4577.2415
ENERGY: 100 119.3912 710.0606 2905.2587 0.0000 -171259.7206 14991.7861 387.3612 0.0000 0.0000 -152145.8627 0.0000 -152145.8627 -152145.8627 0.0000 13056.2644 -4908.1752 534946.2959 13056.2644 -4908.1752
TCL: Setting parameter constraintScaling to 5.0
TCL: Minimizing for 100 steps
ETITLE: TS BOND ANGLE DIHED IMPRP ELECT VDW BOUNDARY MISC KINETIC TOTAL TEMP POTENTIAL TOTAL3 TEMPAVG PRESSURE GPRESSURE VOLUME PRESSAVG GPRESSAVG
ENERGY: 100 119.3912 710.0606 2905.2587 0.0000 -171259.7206 14991.7861 193.6806 0.0000 0.0000 -152339.5433 0.0000 -152339.5433 -152339.5433 0.0000 13672.7706 -23021.8212 534946.2959 13672.7706 -23021.8212
ENERGY: 120 166.4526 692.2079 2910.8259 0.0000 -172914.7538 14833.3500 281.9264 0.0000 0.0000 -154029.9909 0.0000 -154029.9909 -154029.9909 0.0000 13225.2934 -4912.9982 534946.2959 13225.2934 -4912.9982
ENERGY: 140 225.1264 696.9063 2912.9607 0.0000 -174149.5201 14732.6712 321.1860 0.0000 0.0000 -155260.6694 0.0000 -155260.6694 -155260.6694 0.0000 12997.6279 -5265.6583 534946.2959 12997.6279 -5265.6583
ENERGY: 160 270.2485 684.1533 2923.2915 0.0000 -176284.7325 14758.1135 383.2643 0.0000 0.0000 -157265.6614 0.0000 -157265.6614 -157265.6614 0.0000 12739.5230 -5745.8123 534946.2959 12739.5230 -5745.8123
ENERGY: 180 172.7015 724.9581 2929.2194 0.0000 -179192.8111 15054.2035 478.3454 0.0000 0.0000 -159833.3832 0.0000 -159833.3832 -159833.3832 0.0000 12525.3820 -6234.0787 534946.2959 12525.3820 -6234.0787
ENERGY: 200 239.7147 694.1063 2941.4026 0.0000 -181558.3390 15587.4948 546.3325 0.0000 0.0000 -161549.2882 0.0000 -161549.2882 -161549.2882 0.0000 12582.6837 -6431.8260 534946.2959 12582.6837 -6431.8260
TCL: Setting parameter constraintScaling to 2.5
TCL: Minimizing for 100 steps
ETITLE: TS BOND ANGLE DIHED IMPRP ELECT VDW BOUNDARY MISC KINETIC TOTAL TEMP POTENTIAL TOTAL3 TEMPAVG PRESSURE GPRESSURE VOLUME PRESSAVG GPRESSAVG
ENERGY: 200 239.7147 694.1063 2941.4026 0.0000 -181558.3390 15587.4948 273.1662 0.0000 0.0000 -161822.4545 0.0000 -161822.4545 -161822.4545 0.0000 13229.6697 -25662.9625 534946.2959 13229.6697 -25662.9625
ENERGY: 220 245.2176 676.0689 2932.9751 0.0000 -182071.8690 15473.4783 336.6799 0.0000 0.0000 -162407.4492 0.0000 -162407.4492 -162407.4492 0.0000 12975.3162 -6093.1636 534946.2959 12975.3162 -6093.1636
ENERGY: 240 153.7140 693.8915 2928.7690 0.0000 -182681.1219 15530.1320 346.9427 0.0000 0.0000 -163027.6726 0.0000 -163027.6726 -163027.6726 0.0000 13034.0770 -6138.2374 534946.2959 13034.0770 -6138.2374
ENERGY: 260 232.6530 705.1144 2922.3925 0.0000 -183757.3108 15758.3173 380.1531 0.0000 0.0000 -163758.6805 0.0000 -163758.6805 -163758.6805 0.0000 13013.6519 -6247.5458 534946.2959 13013.6519 -6247.5458
ENERGY: 280 202.4009 704.5122 2917.5642 0.0000 -185467.7296 16243.4233 458.8938 0.0000 0.0000 -164940.9350 0.0000 -164940.9350 -164940.9350 0.0000 13140.3287 -6354.2279 534946.2959 13140.3287 -6354.2279
ENERGY: 300 118.2552 637.1190 2916.5638 0.0000 -186062.9957 16435.3899 482.4443 0.0000 0.0000 -165473.2234 0.0000 -165473.2234 -165473.2234 0.0000 13202.0458 -6350.6763 534946.2959 13202.0458 -6350.6763
TCL: Setting parameter constraintScaling to 1.25
TCL: Minimizing for 100 steps
ETITLE: TS BOND ANGLE DIHED IMPRP ELECT VDW BOUNDARY MISC KINETIC TOTAL TEMP POTENTIAL TOTAL3 TEMPAVG PRESSURE GPRESSURE VOLUME PRESSAVG GPRESSAVG
ENERGY: 300 118.2552 637.1190 2916.5638 0.0000 -186062.9957 16435.3899 241.2222 0.0000 0.0000 -165714.4456 0.0000 -165714.4456 -165714.4456 0.0000 13651.0558 -26357.3052 534946.2959 13651.0558 -26357.3052
ENERGY: 320 126.9001 624.8116 2911.3140 0.0000 -186627.4457 16566.0465 273.2242 0.0000 0.0000 -166125.1493 0.0000 -166125.1493 -166125.1493 0.0000 13616.8142 -5989.6983 534946.2959 13616.8142 -5989.6983
ENERGY: 340 139.6046 629.5942 2910.4480 0.0000 -187419.8711 16832.5929 293.8287 0.0000 0.0000 -166613.8027 0.0000 -166613.8027 -166613.8027 0.0000 13712.9364 -5980.1249 534946.2959 13712.9364 -5980.1249
ENERGY: 360 194.0009 681.7908 2912.7212 0.0000 -188062.0983 17025.2763 325.6503 0.0000 0.0000 -166922.6587 0.0000 -166922.6587 -166922.6587 0.0000 13747.4907 -6034.3556 534946.2959 13747.4907 -6034.3556
ENERGY: 380 183.8363 650.2411 2901.9275 0.0000 -188789.1547 17274.0607 346.6188 0.0000 0.0000 -167432.4703 0.0000 -167432.4703 -167432.4703 0.0000 13817.5490 -6030.5729 534946.2959 13817.5490 -6030.5729
ENERGY: 400 215.1285 679.3076 2907.5847 0.0000 -190246.9470 17835.4375 381.0271 0.0000 0.0000 -168228.4615 0.0000 -168228.4615 -168228.4615 0.0000 14038.9854 -5968.3746 534946.2959 14038.9854 -5968.3746
TCL: Setting parameter constraintScaling to 0.625
TCL: Minimizing for 100 steps
ETITLE: TS BOND ANGLE DIHED IMPRP ELECT VDW BOUNDARY MISC KINETIC TOTAL TEMP POTENTIAL TOTAL3 TEMPAVG PRESSURE GPRESSURE VOLUME PRESSAVG GPRESSAVG
ENERGY: 400 215.1285 679.3076 2907.5847 0.0000 -190246.9469 17835.4375 190.5135 0.0000 0.0000 -168418.9751 0.0000 -168418.9751 -168418.9751 0.0000 14332.6759 -26655.5790 534946.2959 14332.6759 -26655.5790
ENERGY: 420 146.8848 637.2851 2897.6030 0.0000 -190433.2257 17870.6170 203.3947 0.0000 0.0000 -168677.4410 0.0000 -168677.4410 -168677.4410 0.0000 14331.7495 -5703.1000 534946.2959 14331.7495 -5703.1000
ENERGY: 440 166.3991 644.9213 2894.6540 0.0000 -190992.0654 18034.4170 228.0151 0.0000 0.0000 -169023.6589 0.0000 -169023.6589 -169023.6589 0.0000 14336.6002 -5760.0581 534946.2959 14336.6002 -5760.0581
ENERGY: 460 146.2225 655.3797 2890.6545 0.0000 -191597.0993 18234.0455 246.4208 0.0000 0.0000 -169424.3763 0.0000 -169424.3763 -169424.3763 0.0000 14436.5674 -5745.4888 534946.2959 14436.5674 -5745.4888
ENERGY: 480 157.7777 665.3124 2889.3378 0.0000 -191815.4439 18321.7772 248.7766 0.0000 0.0000 -169532.4621 0.0000 -169532.4621 -169532.4621 0.0000 14455.1865 -5727.2284 534946.2959 14455.1865 -5727.2284
ENERGY: 500 157.1747 640.2746 2892.1354 0.0000 -192660.5404 18651.4502 260.9174 0.0000 0.0000 -170058.5881 0.0000 -170058.5881 -170058.5881 0.0000 14617.1704 -5672.5406 534946.2959 14617.1704 -5672.5406
TCL: Setting parameter constraintScaling to 0.3125
TCL: Minimizing for 100 steps
ETITLE: TS BOND ANGLE DIHED IMPRP ELECT VDW BOUNDARY MISC KINETIC TOTAL TEMP POTENTIAL TOTAL3 TEMPAVG PRESSURE GPRESSURE VOLUME PRESSAVG GPRESSAVG
ENERGY: 500 157.1747 640.2746 2892.1354 0.0000 -192660.5404 18651.4502 130.4587 0.0000 0.0000 -170189.0468 0.0000 -170189.0468 -170189.0468 0.0000 14796.6428 -26760.3349 534946.2959 14796.6428 -26760.3349
ENERGY: 520 151.8893 654.9791 2884.6824 0.0000 -192991.9135 18739.9129 145.9342 0.0000 0.0000 -170414.5156 0.0000 -170414.5156 -170414.5156 0.0000 14770.6896 -5546.2786 534946.2959 14770.6896 -5546.2786
ENERGY: 540 177.5540 659.7557 2883.5801 0.0000 -193451.8738 18910.0768 155.3887 0.0000 0.0000 -170665.5186 0.0000 -170665.5186 -170665.5186 0.0000 14837.2371 -5532.6622 534946.2959 14837.2371 -5532.6622
ENERGY: 560 150.8499 646.1199 2878.8165 0.0000 -194215.7183 19182.8068 174.7318 0.0000 0.0000 -171182.3935 0.0000 -171182.3935 -171182.3935 0.0000 14954.4699 -5506.6571 534946.2959 14954.4699 -5506.6571
ENERGY: 580 214.9157 734.2378 2885.9846 0.0000 -194852.3801 19421.4985 190.4168 0.0000 0.0000 -171405.3267 0.0000 -171405.3267 -171405.3267 0.0000 14986.7939 -5528.6422 534946.2959 14986.7939 -5528.6422
ENERGY: 600 265.5482 740.0850 2879.7209 0.0000 -196335.3296 20049.5968 214.4935 0.0000 0.0000 -172185.8853 0.0000 -172185.8853 -172185.8853 0.0000 15321.9109 -5379.4727 534946.2959 15321.9109 -5379.4727
TCL: Setting parameter constraintScaling to 0.15625
TCL: Minimizing for 100 steps
ETITLE: TS BOND ANGLE DIHED IMPRP ELECT VDW BOUNDARY MISC KINETIC TOTAL TEMP POTENTIAL TOTAL3 TEMPAVG PRESSURE GPRESSURE VOLUME PRESSAVG GPRESSAVG
ENERGY: 600 265.5482 740.0850 2879.7209 0.0000 -196335.3296 20049.5968 107.2468 0.0000 0.0000 -172293.1320 0.0000 -172293.1320 -172293.1320 0.0000 15442.7809 -26971.1101 534946.2959 15442.7809 -26971.1101
ENERGY: 620 273.0953 694.5116 2876.6515 0.0000 -196535.8762 20117.6605 109.0492 0.0000 0.0000 -172464.9081 0.0000 -172464.9081 -172464.9081 0.0000 15487.9257 -5234.1460 534946.2959 15487.9257 -5234.1460
ENERGY: 640 181.6208 677.1408 2871.0959 0.0000 -196835.9089 20220.1401 115.9343 0.0000 0.0000 -172769.9769 0.0000 -172769.9769 -172769.9769 0.0000 15541.6799 -5223.9284 534946.2959 15541.6799 -5223.9284
ENERGY: 660 186.4098 685.5604 2865.0273 0.0000 -197464.8222 20433.1836 130.8804 0.0000 0.0000 -173163.7607 0.0000 -173163.7607 -173163.7607 0.0000 15538.0777 -5280.0448 534946.2959 15538.0777 -5280.0448
ENERGY: 680 193.2921 676.1115 2858.1347 0.0000 -198004.4452 20638.7658 134.1795 0.0000 0.0000 -173503.9617 0.0000 -173503.9617 -173503.9617 0.0000 15667.1343 -5218.7192 534946.2959 15667.1343 -5218.7192
ENERGY: 700 157.0943 680.2562 2867.4589 0.0000 -198382.9115 20806.0438 131.7981 0.0000 0.0000 -173740.2602 0.0000 -173740.2602 -173740.2602 0.0000 15813.3953 -5126.3215 534946.2959 15813.3953 -5126.3215
TCL: Setting parameter constraintScaling to 0.078125
TCL: Minimizing for 100 steps
ETITLE: TS BOND ANGLE DIHED IMPRP ELECT VDW BOUNDARY MISC KINETIC TOTAL TEMP POTENTIAL TOTAL3 TEMPAVG PRESSURE GPRESSURE VOLUME PRESSAVG GPRESSAVG
ENERGY: 700 157.0943 680.2562 2867.4589 0.0000 -198382.9115 20806.0438 65.8990 0.0000 0.0000 -173806.1592 0.0000 -173806.1592 -173806.1592 0.0000 15882.5098 -27024.6877 534946.2959 15882.5098 -27024.6877
ENERGY: 720 166.2599 673.3761 2852.8561 0.0000 -198639.9656 20866.8248 71.5106 0.0000 0.0000 -174009.1382 0.0000 -174009.1382 -174009.1382 0.0000 15851.0842 -5116.1858 534946.2959 15851.0842 -5116.1858
ENERGY: 740 199.7374 669.5290 2846.9170 0.0000 -199285.7430 21099.0030 78.7769 0.0000 0.0000 -174391.7797 0.0000 -174391.7797 -174391.7797 0.0000 15959.0983 -5079.9507 534946.2959 15959.0983 -5079.9507
ENERGY: 760 164.2645 662.5552 2846.7672 0.0000 -199399.3782 21142.9543 78.2078 0.0000 0.0000 -174504.6292 0.0000 -174504.6292 -174504.6292 0.0000 15993.9731 -5057.3788 534946.2959 15993.9731 -5057.3788
ENERGY: 780 181.2612 672.4680 2856.6629 0.0000 -199969.9119 21390.3823 78.6947 0.0000 0.0000 -174790.4428 0.0000 -174790.4428 -174790.4428 0.0000 16148.2545 -4970.6783 534946.2959 16148.2545 -4970.6783
ENERGY: 800 159.7678 656.7473 2856.6580 0.0000 -200332.0146 21535.9881 81.2636 0.0000 0.0000 -175041.5898 0.0000 -175041.5898 -175041.5898 0.0000 16236.1938 -4931.7509 534946.2959 16236.1938 -4931.7509
TCL: Setting parameter constraintScaling to 0.0390625
TCL: Minimizing for 100 steps
ETITLE: TS BOND ANGLE DIHED IMPRP ELECT VDW BOUNDARY MISC KINETIC TOTAL TEMP POTENTIAL TOTAL3 TEMPAVG PRESSURE GPRESSURE VOLUME PRESSAVG GPRESSAVG
ENERGY: 800 159.7678 656.7473 2856.6580 0.0000 -200332.0146 21535.9881 40.6318 0.0000 0.0000 -175082.2216 0.0000 -175082.2216 -175082.2216 0.0000 16275.7964 -27101.7997 534946.2959 16275.7964 -27101.7997
ENERGY: 820 171.6482 671.2411 2837.9027 0.0000 -200688.7768 21622.0122 45.4722 0.0000 0.0000 -175340.5004 0.0000 -175340.5004 -175340.5004 0.0000 16236.3368 -4970.4780 534946.2959 16236.3368 -4970.4780
ENERGY: 840 186.5262 686.5593 2836.2527 0.0000 -201101.9146 21775.9064 47.6286 0.0000 0.0000 -175569.0414 0.0000 -175569.0414 -175569.0414 0.0000 16307.5637 -4951.6286 534946.2959 16307.5637 -4951.6286
ENERGY: 860 342.5401 709.6956 2842.5886 0.0000 -201510.6207 21963.9441 47.1758 0.0000 0.0000 -175604.6765 0.0000 -175604.6765 -175604.6765 0.0000 16443.0518 -4864.1332 534946.2959 16443.0518 -4864.1332
ENERGY: 880 182.3167 682.5729 2838.9645 0.0000 -202002.8904 22164.1905 49.3065 0.0000 0.0000 -176085.5393 0.0000 -176085.5393 -176085.5393 0.0000 16553.8463 -4807.8557 534946.2959 16553.8463 -4807.8557
ENERGY: 900 163.2934 666.6627 2830.4545 0.0000 -202636.0799 22432.5589 52.9104 0.0000 0.0000 -176490.1999 0.0000 -176490.1999 -176490.1999 0.0000 16684.4274 -4754.5560 534946.2959 16684.4274 -4754.5560
TCL: Setting parameter constraintScaling to 0.01953125
TCL: Minimizing for 100 steps
ETITLE: TS BOND ANGLE DIHED IMPRP ELECT VDW BOUNDARY MISC KINETIC TOTAL TEMP POTENTIAL TOTAL3 TEMPAVG PRESSURE GPRESSURE VOLUME PRESSAVG GPRESSAVG
ENERGY: 900 163.2934 666.6627 2830.4545 0.0000 -202636.0799 22432.5589 26.4552 0.0000 0.0000 -176516.6551 0.0000 -176516.6551 -176516.6551 0.0000 16707.5158 -27219.6225 534946.2959 16707.5158 -27219.6225
ENERGY: 920 163.4168 656.0819 2822.4706 0.0000 -202794.3743 22469.6909 27.4053 0.0000 0.0000 -176655.3089 0.0000 -176655.3089 -176655.3089 0.0000 16709.8713 -4741.3328 534946.2959 16709.8713 -4741.3328
ENERGY: 940 290.3391 748.5053 2825.5784 0.0000 -203260.8168 22652.0338 28.8899 0.0000 0.0000 -176715.4703 0.0000 -176715.4703 -176715.4703 0.0000 16824.6402 -4704.5079 534946.2959 16824.6402 -4704.5079
ENERGY: 960 263.4784 682.3089 2822.9219 0.0000 -203522.6292 22766.0642 29.2525 0.0000 0.0000 -176958.6033 0.0000 -176958.6033 -176958.6033 0.0000 16925.0796 -4630.5017 534946.2959 16925.0796 -4630.5017
ENERGY: 980 196.0995 649.2755 2816.3840 0.0000 -204213.9220 23080.4223 31.1210 0.0000 0.0000 -177440.6197 0.0000 -177440.6197 -177440.6197 0.0000 16992.1967 -4616.8212 534946.2959 16992.1967 -4616.8212
ENERGY: 1000 218.2699 682.3519 2814.8941 0.0000 -204577.1157 23228.1886 32.7673 0.0000 0.0000 -177600.6439 0.0000 -177600.6439 -177600.6439 0.0000 17026.0255 -4616.6806 534946.2959 17026.0255 -4616.6806
TCL: Setting parameter constraintScaling to 0
TCL: Minimizing for 5000 steps
ETITLE: TS BOND ANGLE DIHED IMPRP ELECT VDW BOUNDARY MISC KINETIC TOTAL TEMP POTENTIAL TOTAL3 TEMPAVG PRESSURE GPRESSURE VOLUME PRESSAVG GPRESSAVG
ENERGY: 1000 218.2699 682.3519 2814.8941 0.0000 -204577.1157 23228.1886 0.0000 0.0000 0.0000 -177633.4112 0.0000 -177633.4112 -177633.4112 0.0000 17052.2061 -27335.2191 534946.2959 17052.2061 -27335.2191
ENERGY: 2000 167.9985 662.4176 2801.3213 0.0000 -214783.6545 27851.3421 0.0000 0.0000 0.0000 -183300.5751 0.0000 -183300.5751 -183300.5751 0.0000 19562.1706 -3252.7489 534946.2959 19562.1706 -3252.7489
ENERGY: 3000 168.0591 668.7251 2792.8764 0.0000 -217352.3488 28797.8718 0.0000 0.0000 0.0000 -184924.8164 0.0000 -184924.8164 -184924.8164 0.0000 20060.3452 -3026.8272 534946.2959 20060.3452 -3026.8272
ENERGY: 4000 171.6765 666.3639 2791.0981 0.0000 -218688.2159 29370.2595 0.0000 0.0000 0.0000 -185688.8180 0.0000 -185688.8180 -185688.8180 0.0000 20368.6534 -2849.5030 534946.2959 20368.6534 -2849.5030
ENERGY: 5000 165.1845 662.4108 2789.4988 0.0000 -219432.8048 29610.2730 0.0000 0.0000 0.0000 -186205.4377 0.0000 -186205.4377 -186205.4377 0.0000 20490.1384 -2801.7651 534946.2959 20490.1384 -2801.7651
ENERGY: 6000 165.5629 663.3039 2785.9293 0.0000 -219928.4530 29803.9453 0.0000 0.0000 0.0000 -186509.7115 0.0000 -186509.7115 -186509.7115 0.0000 20589.1006 -2758.2327 534946.2959 20589.1006 -2758.2327
