Info: SIMULATION PARAMETERS:
Info: TIMESTEP               2
Info: NUMBER OF STEPS        0
Info: STEPS PER CYCLE        10
Info: PERIODIC CELL BASIS 1  72.449 0 0
Info: PERIODIC CELL BASIS 2  0 93.247 0
Info: PERIODIC CELL BASIS 3  0 0 79.185
Info: PERIODIC CELL CENTER   -0.248 -0.156 -0.047
Info: WRAPPING WATERS AROUND PERIODIC BOUNDARIES ON OUTPUT.
Info: WRAPPING ALL CLUSTERS AROUND PERIODIC BOUNDARIES ON OUTPUT.
Info: FIRST LDB TIMESTEP     50
Info: LAST LDB TIMESTEP     -1
Info: HOM BACKGROUND SCALING 1
Info: PME BACKGROUND SCALING 1
Info: MIN ATOMS PER PATCH    40
Info: INITIAL TEMPERATURE    0
Info: CENTER OF MASS MOVING INITIALLY? NO
Info: DIELECTRIC             1
Info: EXCLUDE                SCALED ONE-FOUR
Info: 1-4 ELECTROSTATICS SCALED BY 0.833333
Info: MODIFIED 1-4 VDW PARAMETERS WILL BE USED
Info: NO DCD TRAJECTORY OUTPUT
Info: NO EXTENDED SYSTEM TRAJECTORY OUTPUT
Info: NO VELOCITY DCD OUTPUT
Info: NO FORCE DCD OUTPUT
Info: OUTPUT FILENAME        ../replicas/rep107/equilibration/eq0
Info: NO RESTART FILE
Info: SWITCHING ACTIVE
Info: SWITCHING ON           10
Info: SWITCHING OFF          12
Info: PAIRLIST DISTANCE      13.5
Info: PAIRLIST SHRINK RATE   0.01
Info: PAIRLIST GROW RATE     0.01
Info: PAIRLIST TRIGGER       0.3
Info: PAIRLISTS PER CYCLE    2
Info: PAIRLISTS ENABLED
Info: MARGIN                 0
Info: HYDROGEN GROUP CUTOFF  2.5
Info: PATCH DIMENSION        16
Info: ENERGY OUTPUT STEPS    500
Info: CROSSTERM ENERGY INCLUDED IN DIHEDRAL
Info: TIMING OUTPUT STEPS    5000
Info: PRESSURE OUTPUT STEPS  500
Info: HARMONIC CONSTRAINTS ACTIVE
Info: HARMONIC CONS EXP      2
Info: HARMONIC CONS SCALING  10
Info: CONJUGATE GRADIENT MINIMIZATION ACTIVE
Info: LINE MINIMIZATION GOAL = 0.001
Info: BABY STEP SIZE = 0.01
Info: TINY STEP SIZE = 1e-06
Info: PARTICLE MESH EWALD (PME) ACTIVE
Info: PME TOLERANCE               1e-06
Info: PME EWALD COEFFICIENT       0.257952
Info: PME INTERPOLATION ORDER     4
Info: PME GRID DIMENSIONS         80 96 80
Info: PME MAXIMUM GRID SPACING    1
Info: FULL ELECTROSTATIC EVALUATION FREQUENCY      2
Info: USING VERLET I (r-RESPA) MTS SCHEME.
Info: C1 SPLITTING OF LONG RANGE ELECTROSTATICS
Info: PLACING ATOMS IN PATCHES BY HYDROGEN GROUPS
Info: RIGID BONDS TO HYDROGEN : ALL
Info:         ERROR TOLERANCE : 1e-05
Info:          MAX ITERATIONS : 100
Info: RIGID WATER USING SETTLE ALGORITHM
Info: RANDOM NUMBER SEED     1503698645
Info: USE HYDROGEN BONDS?    NO
Info: Using AMBER format force field!
Info: AMBER PARM FILE        ../build/complex.top
Info: COORDINATE PDB         ../build/complex.pdb
Info: Exclusions in PARM file will be ignored!
Info: SCNB (VDW SCALING)     2
Info: USING ARITHMETIC MEAN TO COMBINE L-J SIGMA PARAMETERS
Info: SUMMARY OF PARAMETERS:
Info: 71 BONDS
Info: 145 ANGLES
Info:   145 HARMONIC
Info:   0 COSINE-BASED
Info: 76 DIHEDRAL
Info: 0 IMPROPER
Info: 0 CROSSTERM
Info: 0 VDW
Info: 190 VDW_PAIRS
Info: 0 NBTHOLE_PAIRS
Info: STRUCTURE SUMMARY:
Info: 49394 ATOMS
Info: 49448 BONDS
Info: 8698 ANGLES
Info: 18780 DIHEDRALS
Info: 0 IMPROPERS
Info: 0 CROSSTERMS
Info: 0 EXCLUSIONS
Info: 2336 CONSTRAINTS
Info: 47058 RIGID BONDS
Info: 101124 DEGREES OF FREEDOM
Info: 17225 HYDROGEN GROUPS
Info: 4 ATOMS IN LARGEST HYDROGEN GROUP
Info: 17225 MIGRATION GROUPS
Info: 4 ATOMS IN LARGEST MIGRATION GROUP
Info: TOTAL MASS = 301478 amu
Info: TOTAL CHARGE = 1.00115e-05 e
Info: MASS DENSITY = 0.935846 g/cm^3
Info: ATOM DENSITY = 0.0923345 atoms/A^3
Info: ADDED 70656 IMPLICIT EXCLUSIONS
Info: NONBONDED TABLE R-SQUARED SPACING: 0.0625
Info: NONBONDED TABLE SIZE: 769 POINTS
Info: REMOVING COM VELOCITY 0 0 0
TCL: Minimizing for 100 steps
ETITLE: TS BOND ANGLE DIHED IMPRP ELECT VDW BOUNDARY MISC KINETIC TOTAL TEMP POTENTIAL TOTAL3 TEMPAVG PRESSURE GPRESSURE VOLUME PRESSAVG GPRESSAVG
ENERGY: 0 155.4176 1012.2698 2855.7272 0.0000 -154496.7912 207729.2052 0.0468 0.0000 0.0000 57255.8754 0.0000 57255.8754 57255.8754 0.0000 116350.2532 86546.1670 534946.2959 116350.2532 86546.1670
ENERGY: 20 304.7559 935.7912 2893.4663 0.0000 -158672.9411 17936.6591 143.9455 0.0000 0.0000 -136458.3231 0.0000 -136458.3231 -136458.3231 0.0000 16523.9383 -239.4563 534946.2959 16523.9383 -239.4563
ENERGY: 40 198.7467 799.5731 2896.9273 0.0000 -162811.4525 16417.9538 221.3030 0.0000 0.0000 -142276.9485 0.0000 -142276.9485 -142276.9485 0.0000 15011.2704 -2135.4696 534946.2959 15011.2704 -2135.4696
ENERGY: 60 130.5280 715.3439 2898.2166 0.0000 -167496.1593 15446.7536 315.2797 0.0000 0.0000 -147990.0375 0.0000 -147990.0375 -147990.0375 0.0000 13793.8832 -3799.3993 534946.2959 13793.8832 -3799.3993
ENERGY: 80 431.2704 765.6303 2904.3788 0.0000 -169937.5306 15121.1523 372.0123 0.0000 0.0000 -150343.0866 0.0000 -150343.0866 -150343.0866 0.0000 13270.3305 -4577.2448 534946.2959 13270.3305 -4577.2448
ENERGY: 100 129.7132 708.0646 2904.2782 0.0000 -171050.0682 15018.6532 384.2002 0.0000 0.0000 -151905.1589 0.0000 -151905.1589 -151905.1589 0.0000 13092.9124 -4843.6319 534946.2959 13092.9124 -4843.6319
TCL: Setting parameter constraintScaling to 5.0
TCL: Minimizing for 100 steps
ETITLE: TS BOND ANGLE DIHED IMPRP ELECT VDW BOUNDARY MISC KINETIC TOTAL TEMP POTENTIAL TOTAL3 TEMPAVG PRESSURE GPRESSURE VOLUME PRESSAVG GPRESSAVG
ENERGY: 100 129.7132 708.0646 2904.2782 0.0000 -171050.0682 15018.6532 192.1001 0.0000 0.0000 -152097.2590 0.0000 -152097.2590 -152097.2590 0.0000 13703.5076 -22944.4553 534946.2959 13703.5076 -22944.4553
ENERGY: 120 118.6816 680.2874 2909.9066 0.0000 -172396.3147 14830.1204 259.9549 0.0000 0.0000 -153597.3637 0.0000 -153597.3637 -153597.3637 0.0000 13320.9473 -4756.3074 534946.2959 13320.9473 -4756.3074
ENERGY: 140 109.1475 671.1464 2912.0864 0.0000 -174830.2793 14716.1437 337.7313 0.0000 0.0000 -156084.0241 0.0000 -156084.0241 -156084.0241 0.0000 12908.9570 -5423.1500 534946.2959 12908.9570 -5423.1500
ENERGY: 160 125.8534 667.1507 2914.1925 0.0000 -175967.0030 14735.1327 362.9178 0.0000 0.0000 -157161.7559 0.0000 -157161.7559 -157161.7559 0.0000 12806.8988 -5643.0078 534946.2959 12806.8988 -5643.0078
ENERGY: 180 303.4925 659.6797 2917.2966 0.0000 -177408.7191 14815.0152 395.3828 0.0000 0.0000 -158317.8522 0.0000 -158317.8522 -158317.8522 0.0000 12699.3149 -5900.1158 534946.2959 12699.3149 -5900.1158
ENERGY: 200 109.2078 628.4681 2923.3582 0.0000 -179543.7733 15071.1431 441.8798 0.0000 0.0000 -160369.7164 0.0000 -160369.7164 -160369.7164 0.0000 12659.9907 -6160.8326 534946.2959 12659.9907 -6160.8326
TCL: Setting parameter constraintScaling to 2.5
TCL: Minimizing for 100 steps
ETITLE: TS BOND ANGLE DIHED IMPRP ELECT VDW BOUNDARY MISC KINETIC TOTAL TEMP POTENTIAL TOTAL3 TEMPAVG PRESSURE GPRESSURE VOLUME PRESSAVG GPRESSAVG
ENERGY: 200 109.2078 628.4681 2923.3582 0.0000 -179543.7733 15071.1431 220.9399 0.0000 0.0000 -160590.6563 0.0000 -160590.6563 -160590.6563 0.0000 13208.4131 -25279.9678 534946.2959 13208.4131 -25279.9678
ENERGY: 220 274.9964 651.9956 2925.2509 0.0000 -180394.8554 15108.7952 287.9113 0.0000 0.0000 -161145.9060 0.0000 -161145.9060 -161145.9060 0.0000 13000.1079 -5920.0168 534946.2959 13000.1079 -5920.0168
ENERGY: 240 144.4475 629.0085 2922.0869 0.0000 -181649.7621 15308.6311 331.5284 0.0000 0.0000 -162314.0598 0.0000 -162314.0598 -162314.0598 0.0000 12968.6531 -6081.5157 534946.2959 12968.6531 -6081.5157
ENERGY: 260 238.6829 648.2947 2922.1918 0.0000 -183613.0562 15753.6627 410.2745 0.0000 0.0000 -163639.9494 0.0000 -163639.9494 -163639.9494 0.0000 12997.5837 -6271.7006 534946.2959 12997.5837 -6271.7006
ENERGY: 280 149.5558 673.3095 2920.5894 0.0000 -184625.0034 16044.4559 433.1202 0.0000 0.0000 -164403.9726 0.0000 -164403.9726 -164403.9726 0.0000 13100.8049 -6293.1711 534946.2959 13100.8049 -6293.1711
ENERGY: 300 181.0848 672.4906 2923.2669 0.0000 -185741.0371 16392.1512 428.1548 0.0000 0.0000 -165143.8888 0.0000 -165143.8888 -165143.8888 0.0000 13254.2667 -6245.5570 534946.2959 13254.2667 -6245.5570
TCL: Setting parameter constraintScaling to 1.25
TCL: Minimizing for 100 steps
ETITLE: TS BOND ANGLE DIHED IMPRP ELECT VDW BOUNDARY MISC KINETIC TOTAL TEMP POTENTIAL TOTAL3 TEMPAVG PRESSURE GPRESSURE VOLUME PRESSAVG GPRESSAVG
ENERGY: 300 181.0848 672.4906 2923.2669 0.0000 -185741.0371 16392.1512 214.0774 0.0000 0.0000 -165357.9662 0.0000 -165357.9662 -165357.9662 0.0000 13670.0136 -26250.0974 534946.2959 13670.0136 -26250.0974
ENERGY: 320 164.8587 664.3631 2915.3172 0.0000 -186223.7518 16488.2911 249.7400 0.0000 0.0000 -165741.1817 0.0000 -165741.1817 -165741.1817 0.0000 13644.8053 -5918.5586 534946.2959 13644.8053 -5918.5586
ENERGY: 340 205.0609 681.4723 2911.3079 0.0000 -187485.0158 16828.7435 334.3587 0.0000 0.0000 -166524.0725 0.0000 -166524.0725 -166524.0725 0.0000 13596.5540 -6097.3571 534946.2959 13596.5540 -6097.3571
ENERGY: 360 137.5846 653.4312 2904.7006 0.0000 -188135.4475 17033.4748 361.7472 0.0000 0.0000 -167044.5092 0.0000 -167044.5092 -167044.5092 0.0000 13685.1295 -6095.3811 534946.2959 13685.1295 -6095.3811
ENERGY: 380 176.7024 662.2770 2910.7495 0.0000 -188939.6681 17356.5789 330.2513 0.0000 0.0000 -167503.1090 0.0000 -167503.1090 -167503.1090 0.0000 13894.9036 -5960.2475 534946.2959 13894.9036 -5960.2475
ENERGY: 400 208.3503 689.1893 2929.5497 0.0000 -190197.0956 17873.0425 325.1069 0.0000 0.0000 -168171.8568 0.0000 -168171.8568 -168171.8568 0.0000 14203.8090 -5824.6335 534946.2959 14203.8090 -5824.6335
TCL: Setting parameter constraintScaling to 0.625
TCL: Minimizing for 100 steps
ETITLE: TS BOND ANGLE DIHED IMPRP ELECT VDW BOUNDARY MISC KINETIC TOTAL TEMP POTENTIAL TOTAL3 TEMPAVG PRESSURE GPRESSURE VOLUME PRESSAVG GPRESSAVG
ENERGY: 400 208.3503 689.1893 2929.5497 0.0000 -190197.0956 17873.0425 162.5535 0.0000 0.0000 -168334.4103 0.0000 -168334.4103 -168334.4103 0.0000 14481.7341 -26502.5360 534946.2959 14481.7341 -26502.5360
ENERGY: 420 153.1407 637.2416 2902.8796 0.0000 -190422.9796 17898.5685 183.8993 0.0000 0.0000 -168647.2501 0.0000 -168647.2501 -168647.2501 0.0000 14401.0862 -5629.4679 534946.2959 14401.0862 -5629.4679
ENERGY: 440 183.4821 665.5554 2893.3793 0.0000 -191688.1517 18263.6888 263.2691 0.0000 0.0000 -169418.7771 0.0000 -169418.7771 -169418.7771 0.0000 14360.2850 -5814.2082 534946.2959 14360.2850 -5814.2082
ENERGY: 460 154.0589 670.2087 2889.2626 0.0000 -192702.0762 18635.7840 289.4486 0.0000 0.0000 -170063.3134 0.0000 -170063.3134 -170063.3134 0.0000 14544.8439 -5743.3212 534946.2959 14544.8439 -5743.3212
ENERGY: 480 169.0760 673.0998 2885.9981 0.0000 -193193.7912 18852.7412 290.4091 0.0000 0.0000 -170322.4670 0.0000 -170322.4670 -170322.4670 0.0000 14629.2173 -5707.1267 534946.2959 14629.2173 -5707.1267
ENERGY: 500 143.1105 673.4633 2897.8948 0.0000 -194786.1252 19586.9400 288.6830 0.0000 0.0000 -171196.0335 0.0000 -171196.0335 -171196.0335 0.0000 15112.2058 -5416.1935 534946.2959 15112.2058 -5416.1935
TCL: Setting parameter constraintScaling to 0.3125
TCL: Minimizing for 100 steps
ETITLE: TS BOND ANGLE DIHED IMPRP ELECT VDW BOUNDARY MISC KINETIC TOTAL TEMP POTENTIAL TOTAL3 TEMPAVG PRESSURE GPRESSURE VOLUME PRESSAVG GPRESSAVG
ENERGY: 500 143.1105 673.4633 2897.8948 0.0000 -194786.1252 19586.9400 144.3415 0.0000 0.0000 -171340.3750 0.0000 -171340.3750 -171340.3750 0.0000 15304.4828 -26760.5262 534946.2959 15304.4828 -26760.5262
ENERGY: 520 185.1372 675.7283 2878.7612 0.0000 -195215.6261 19631.5065 171.2397 0.0000 0.0000 -171673.2532 0.0000 -171673.2532 -171673.2532 0.0000 15191.8749 -5373.6124 534946.2959 15191.8749 -5373.6124
ENERGY: 540 171.4437 705.0721 2880.2391 0.0000 -195584.1961 19744.3860 192.3777 0.0000 0.0000 -171890.6775 0.0000 -171890.6775 -171890.6775 0.0000 15189.7977 -5420.2828 534946.2959 15189.7977 -5420.2828
ENERGY: 560 158.5139 663.1829 2871.8142 0.0000 -195919.4470 19878.9072 192.9916 0.0000 0.0000 -172154.0372 0.0000 -172154.0372 -172154.0372 0.0000 15249.3555 -5396.2813 534946.2959 15249.3555 -5396.2813
ENERGY: 580 173.9211 693.6835 2876.9405 0.0000 -196547.4467 20166.8397 195.1528 0.0000 0.0000 -172440.9092 0.0000 -172440.9092 -172440.9092 0.0000 15449.7611 -5267.2126 534946.2959 15449.7611 -5267.2126
ENERGY: 600 154.8540 675.4370 2887.0506 0.0000 -197061.5292 20384.3670 201.0401 0.0000 0.0000 -172758.7806 0.0000 -172758.7806 -172758.7806 0.0000 15581.2967 -5194.4545 534946.2959 15581.2967 -5194.4545
TCL: Setting parameter constraintScaling to 0.15625
TCL: Minimizing for 100 steps
ETITLE: TS BOND ANGLE DIHED IMPRP ELECT VDW BOUNDARY MISC KINETIC TOTAL TEMP POTENTIAL TOTAL3 TEMPAVG PRESSURE GPRESSURE VOLUME PRESSAVG GPRESSAVG
ENERGY: 600 154.8540 675.4370 2887.0506 0.0000 -197061.5292 20384.3670 100.5200 0.0000 0.0000 -172859.3006 0.0000 -172859.3006 -172859.3006 0.0000 15698.0155 -26900.5061 534946.2959 15698.0155 -26900.5061
ENERGY: 620 386.8808 735.6604 2868.5318 0.0000 -197476.1779 20450.0756 116.1295 0.0000 0.0000 -172918.8999 0.0000 -172918.8999 -172918.8999 0.0000 15578.5540 -5275.4151 534946.2959 15578.5540 -5275.4151
ENERGY: 640 169.2609 670.0899 2862.7784 0.0000 -197674.5020 20523.2466 121.0868 0.0000 0.0000 -173328.0395 0.0000 -173328.0395 -173328.0395 0.0000 15634.1862 -5212.0824 534946.2959 15634.1862 -5212.0824
ENERGY: 660 172.3433 666.8127 2856.7141 0.0000 -198305.2481 20749.8606 130.3860 0.0000 0.0000 -173729.1315 0.0000 -173729.1315 -173729.1315 0.0000 15728.7467 -5193.6059 534946.2959 15728.7467 -5193.6059
ENERGY: 680 161.9448 650.9047 2855.4979 0.0000 -198587.5343 20869.7610 129.0493 0.0000 0.0000 -173920.3765 0.0000 -173920.3765 -173920.3765 0.0000 15857.1329 -5107.2275 534946.2959 15857.1329 -5107.2275
ENERGY: 700 158.3985 670.9932 2869.5713 0.0000 -199895.1041 21433.7678 141.6164 0.0000 0.0000 -174620.7570 0.0000 -174620.7570 -174620.7570 0.0000 16169.1736 -4943.7637 534946.2959 16169.1736 -4943.7637
TCL: Setting parameter constraintScaling to 0.078125
TCL: Minimizing for 100 steps
ETITLE: TS BOND ANGLE DIHED IMPRP ELECT VDW BOUNDARY MISC KINETIC TOTAL TEMP POTENTIAL TOTAL3 TEMPAVG PRESSURE GPRESSURE VOLUME PRESSAVG GPRESSAVG
ENERGY: 700 158.3985 670.9932 2869.5713 0.0000 -199895.1041 21433.7678 70.8082 0.0000 0.0000 -174691.5652 0.0000 -174691.5652 -174691.5652 0.0000 16241.2208 -27031.2645 534946.2959 16241.2208 -27031.2645
ENERGY: 720 162.7861 646.2400 2842.8134 0.0000 -200149.4983 21461.9340 76.6951 0.0000 0.0000 -174959.0297 0.0000 -174959.0297 -174959.0297 0.0000 16200.7135 -4947.1825 534946.2959 16200.7135 -4947.1825
ENERGY: 740 216.8885 671.3771 2842.5227 0.0000 -200598.4229 21614.7625 84.0081 0.0000 0.0000 -175168.8639 0.0000 -175168.8639 -175168.8639 0.0000 16184.3278 -5007.8274 534946.2959 16184.3278 -5007.8274
ENERGY: 760 177.0233 657.6408 2838.5351 0.0000 -200994.6689 21773.0469 84.0340 0.0000 0.0000 -175464.3887 0.0000 -175464.3887 -175464.3887 0.0000 16339.7189 -4901.4487 534946.2959 16339.7189 -4901.4487
ENERGY: 780 201.2268 679.0981 2837.7444 0.0000 -201638.8483 22026.1564 89.9578 0.0000 0.0000 -175804.6649 0.0000 -175804.6649 -175804.6649 0.0000 16446.6090 -4876.8131 534946.2959 16446.6090 -4876.8131
ENERGY: 800 171.2698 659.8538 2827.1026 0.0000 -202715.4825 22501.4185 101.1031 0.0000 0.0000 -176454.7346 0.0000 -176454.7346 -176454.7346 0.0000 16682.7443 -4760.1942 534946.2959 16682.7443 -4760.1942
TCL: Setting parameter constraintScaling to 0.0390625
TCL: Minimizing for 100 steps
ETITLE: TS BOND ANGLE DIHED IMPRP ELECT VDW BOUNDARY MISC KINETIC TOTAL TEMP POTENTIAL TOTAL3 TEMPAVG PRESSURE GPRESSURE VOLUME PRESSAVG GPRESSAVG
ENERGY: 800 171.2698 659.8538 2827.1026 0.0000 -202715.4825 22501.4185 50.5515 0.0000 0.0000 -176505.2862 0.0000 -176505.2862 -176505.2862 0.0000 16726.4240 -27217.8086 534946.2959 16726.4240 -27217.8086
ENERGY: 820 171.2914 654.0857 2825.8029 0.0000 -202915.4355 22561.8474 51.6485 0.0000 0.0000 -176650.7596 0.0000 -176650.7596 -176650.7596 0.0000 16749.3414 -4722.1593 534946.2959 16749.3414 -4722.1593
ENERGY: 840 159.9473 651.6871 2822.9683 0.0000 -203185.0719 22667.6317 52.8821 0.0000 0.0000 -176829.9554 0.0000 -176829.9554 -176829.9554 0.0000 16808.1339 -4692.5113 534946.2959 16808.1339 -4692.5113
ENERGY: 860 196.5918 673.3750 2823.4456 0.0000 -203566.5037 22816.6111 55.3250 0.0000 0.0000 -177001.1552 0.0000 -177001.1552 -177001.1552 0.0000 16850.5666 -4695.3658 534946.2959 16850.5666 -4695.3658
ENERGY: 880 568.9236 796.5106 2827.1810 0.0000 -204477.4085 23230.6047 59.5460 0.0000 0.0000 -176994.6426 0.0000 -176994.6426 -176994.6426 0.0000 17051.9791 -4637.2472 534946.2959 17051.9791 -4637.2472
ENERGY: 900 167.9837 658.2016 2813.7192 0.0000 -204977.8697 23479.8643 62.5920 0.0000 0.0000 -177795.5088 0.0000 -177795.5088 -177795.5088 0.0000 17226.3023 -4486.0620 534946.2959 17226.3023 -4486.0620
TCL: Setting parameter constraintScaling to 0.01953125
TCL: Minimizing for 100 steps
ETITLE: TS BOND ANGLE DIHED IMPRP ELECT VDW BOUNDARY MISC KINETIC TOTAL TEMP POTENTIAL TOTAL3 TEMPAVG PRESSURE GPRESSURE VOLUME PRESSAVG GPRESSAVG
ENERGY: 900 167.9837 658.2016 2813.7192 0.0000 -204977.8697 23479.8643 31.2960 0.0000 0.0000 -177826.8048 0.0000 -177826.8048 -177826.8048 0.0000 17251.5648 -27232.0816 534946.2959 17251.5648 -27232.0816
ENERGY: 920 160.4564 659.2878 2811.7729 0.0000 -205097.6079 23508.0114 31.7623 0.0000 0.0000 -177926.3172 0.0000 -177926.3172 -177926.3172 0.0000 17257.0753 -4469.4937 534946.2959 17257.0753 -4469.4937
ENERGY: 940 165.9787 653.4403 2809.9777 0.0000 -205438.0996 23644.5492 33.0172 0.0000 0.0000 -178131.1364 0.0000 -178131.1364 -178131.1364 0.0000 17297.2892 -4464.9849 534946.2959 17297.2892 -4464.9849
ENERGY: 960 198.2007 673.6332 2812.9805 0.0000 -205767.5092 23794.2102 33.8470 0.0000 0.0000 -178254.6376 0.0000 -178254.6376 -178254.6376 0.0000 17373.8868 -4421.3888 534946.2959 17373.8868 -4421.3888
ENERGY: 980 217.2966 717.6970 2815.9648 0.0000 -206092.6623 23934.5867 35.1366 0.0000 0.0000 -178371.9807 0.0000 -178371.9807 -178371.9807 0.0000 17391.4414 -4423.0394 534946.2959 17391.4414 -4423.0394
ENERGY: 1000 169.4869 665.2924 2808.0690 0.0000 -206246.2647 23996.1400 35.8293 0.0000 0.0000 -178571.4472 0.0000 -178571.4472 -178571.4472 0.0000 17469.4449 -4381.5950 534946.2959 17469.4449 -4381.5950
TCL: Setting parameter constraintScaling to 0
TCL: Minimizing for 5000 steps
ETITLE: TS BOND ANGLE DIHED IMPRP ELECT VDW BOUNDARY MISC KINETIC TOTAL TEMP POTENTIAL TOTAL3 TEMPAVG PRESSURE GPRESSURE VOLUME PRESSAVG GPRESSAVG
ENERGY: 1000 169.4869 665.2924 2808.0690 0.0000 -206246.2647 23996.1400 0.0000 0.0000 0.0000 -178607.2765 0.0000 -178607.2765 -178607.2765 0.0000 17496.9808 -27288.4230 534946.2959 17496.9808 -27288.4230
ENERGY: 2000 168.2301 660.2337 2799.5113 0.0000 -215127.3126 27886.9439 0.0000 0.0000 0.0000 -183612.3936 0.0000 -183612.3936 -183612.3936 0.0000 19581.3239 -3274.7408 534946.2959 19581.3239 -3274.7408
ENERGY: 3000 165.9043 666.3592 2796.2645 0.0000 -217624.2873 28916.4406 0.0000 0.0000 0.0000 -185079.3186 0.0000 -185079.3186 -185079.3186 0.0000 20136.0526 -2949.7239 534946.2959 20136.0526 -2949.7239
ENERGY: 4000 164.8098 665.3686 2788.1128 0.0000 -218975.3141 29510.0141 0.0000 0.0000 0.0000 -185847.0088 0.0000 -185847.0088 -185847.0088 0.0000 20445.1992 -2782.8197 534946.2959 20445.1992 -2782.8197
ENERGY: 5000 169.0490 667.0772 2785.8162 0.0000 -219670.3187 29781.3236 0.0000 0.0000 0.0000 -186267.0527 0.0000 -186267.0527 -186267.0527 0.0000 20589.2363 -2700.6337 534946.2959 20589.2363 -2700.6337
ENERGY: 6000 165.6489 665.5811 2786.6281 0.0000 -220037.1429 29925.8151 0.0000 0.0000 0.0000 -186493.4697 0.0000 -186493.4697 -186493.4697 0.0000 20661.9967 -2674.1832 534946.2959 20661.9967 -2674.1832
