Info: SIMULATION PARAMETERS:
Info: TIMESTEP               1
Info: NUMBER OF STEPS        0
Info: STEPS PER CYCLE        10
Info: PERIODIC CELL BASIS 1  72.449 0 0
Info: PERIODIC CELL BASIS 2  0 93.247 0
Info: PERIODIC CELL BASIS 3  0 0 79.185
Info: PERIODIC CELL CENTER   -0.248 -0.156 -0.047
Info: WRAPPING WATERS AROUND PERIODIC BOUNDARIES ON OUTPUT.
Info: WRAPPING ALL CLUSTERS AROUND PERIODIC BOUNDARIES ON OUTPUT.
Info: FIRST LDB TIMESTEP     50
Info: LAST LDB TIMESTEP     -1
Info: HOM BACKGROUND SCALING 1
Info: PME BACKGROUND SCALING 1
Info: MIN ATOMS PER PATCH    40
Info: VELOCITY FILE          ../replicas/rep116/equilibration/eq1.vel
Info: CENTER OF MASS MOVING INITIALLY? NO
Info: DIELECTRIC             1
Info: EXCLUDE                SCALED ONE-FOUR
Info: 1-4 ELECTROSTATICS SCALED BY 0.833333
Info: MODIFIED 1-4 VDW PARAMETERS WILL BE USED
Info: DCD FILENAME           ../replicas/rep116/equilibration/eq2.dcd
Info: DCD FREQUENCY          5000
Info: DCD FIRST STEP         5000
Info: DCD FILE WILL CONTAIN UNIT CELL DATA
Info: XST FILENAME           ../replicas/rep116/equilibration/eq2.xst
Info: XST FREQUENCY          5000
Info: NO VELOCITY DCD OUTPUT
Info: NO FORCE DCD OUTPUT
Info: OUTPUT FILENAME        ../replicas/rep116/equilibration/eq2
Info: RESTART FILENAME       ../replicas/rep116/equilibration/eq2.restart
Info: RESTART FREQUENCY      5000
Info: BINARY RESTART FILES WILL BE USED
Info: SWITCHING ACTIVE
Info: SWITCHING ON           10
Info: SWITCHING OFF          12
Info: PAIRLIST DISTANCE      13.5
Info: PAIRLIST SHRINK RATE   0.01
Info: PAIRLIST GROW RATE     0.01
Info: PAIRLIST TRIGGER       0.3
Info: PAIRLISTS PER CYCLE    2
Info: PAIRLISTS ENABLED
Info: MARGIN                 0.48
Info: HYDROGEN GROUP CUTOFF  2.5
Info: PATCH DIMENSION        16.48
Info: ENERGY OUTPUT STEPS    500
Info: CROSSTERM ENERGY INCLUDED IN DIHEDRAL
Info: TIMING OUTPUT STEPS    5000
Info: PRESSURE OUTPUT STEPS  500
Info: HARMONIC CONSTRAINTS ACTIVE
Info: HARMONIC CONS EXP      2
Info: HARMONIC CONS SCALING  10
Info: LANGEVIN DYNAMICS ACTIVE
Info: LANGEVIN TEMPERATURE   300
Info: LANGEVIN USING BBK INTEGRATOR
Info: LANGEVIN DAMPING COEFFICIENT IS 5 INVERSE PS
Info: LANGEVIN DYNAMICS NOT APPLIED TO HYDROGENS
Info: BERENDSEN PRESSURE COUPLING ACTIVE
Info:     TARGET PRESSURE IS 1 BAR
Info:     COMPRESSIBILITY ESTIMATE IS 4.57e-05 BAR^(-1)
Info:     RELAXATION TIME IS 100 FS
Info:     APPLIED EVERY 2 STEPS
Info:     PRESSURE CONTROL IS GROUP-BASED
Info:       CELL FLUCTUATION IS ISOTROPIC
Info: PARTICLE MESH EWALD (PME) ACTIVE
Info: PME TOLERANCE               1e-06
Info: PME EWALD COEFFICIENT       0.257952
Info: PME INTERPOLATION ORDER     4
Info: PME GRID DIMENSIONS         80 96 80
Info: PME MAXIMUM GRID SPACING    1
Info: FULL ELECTROSTATIC EVALUATION FREQUENCY      2
Info: USING VERLET I (r-RESPA) MTS SCHEME.
Info: C1 SPLITTING OF LONG RANGE ELECTROSTATICS
Info: PLACING ATOMS IN PATCHES BY HYDROGEN GROUPS
Info: RIGID BONDS TO HYDROGEN : WATER
Info:         ERROR TOLERANCE : 1e-05
Info:          MAX ITERATIONS : 100
Info: RIGID WATER USING SETTLE ALGORITHM
Info: RANDOM NUMBER SEED     1503718529
Info: USE HYDROGEN BONDS?    NO
Info: Using AMBER format force field!
Info: AMBER PARM FILE        ../build/complex.top
Info: COORDINATE PDB         ../replicas/rep116/equilibration/eq1.coor
Info: Exclusions in PARM file will be ignored!
Info: SCNB (VDW SCALING)     2
Info: USING ARITHMETIC MEAN TO COMBINE L-J SIGMA PARAMETERS
Info: SUMMARY OF PARAMETERS:
Info: 71 BONDS
Info: 145 ANGLES
Info: 76 DIHEDRAL
Info: 0 IMPROPER
Info: 0 CROSSTERM
Info: 0 VDW
Info: 190 VDW_PAIRS
Info: 0 NBTHOLE_PAIRS
Info: STRUCTURE SUMMARY:
Info: 49394 ATOMS
Info: 49448 BONDS
Info: 8698 ANGLES
Info: 18780 DIHEDRALS
Info: 0 IMPROPERS
Info: 0 CROSSTERMS
Info: 0 EXCLUSIONS
Info: 2336 CONSTRAINTS
Info: 44667 RIGID BONDS
Info: 103515 DEGREES OF FREEDOM
Info: 17225 HYDROGEN GROUPS
Info: 4 ATOMS IN LARGEST HYDROGEN GROUP
Info: 17225 MIGRATION GROUPS
Info: 4 ATOMS IN LARGEST MIGRATION GROUP
Info: TOTAL MASS = 301478 amu
Info: TOTAL CHARGE = 1.00115e-05 e
Info: MASS DENSITY = 0.935846 g/cm^3
Info: ATOM DENSITY = 0.0923345 atoms/A^3
Info: ADDED 70656 IMPLICIT EXCLUSIONS
Info: NONBONDED TABLE R-SQUARED SPACING: 0.0625
Info: NONBONDED TABLE SIZE: 769 POINTS
Info: REMOVING COM VELOCITY 0.00285767 -0.0204934 -0.000957206
TCL: Running for 5000 steps
ETITLE: TS BOND ANGLE DIHED IMPRP ELECT VDW BOUNDARY MISC KINETIC TOTAL TEMP POTENTIAL TOTAL3 TEMPAVG PRESSURE GPRESSURE VOLUME PRESSAVG GPRESSAVG
ENERGY: 0 393.5711 1204.9920 2906.9985 0.0000 -212648.4511 29561.6589 0.0000 0.0000 10077.0570 -168504.1736 97.9762 -178581.2306 -168494.6656 97.9762 -2335.6835 -2434.0116 534946.2959 -2335.6835 -2434.0116
ENERGY: 1000 1210.2110 1927.9572 3122.3644 0.0000 -193268.7073 26250.0415 775.3872 0.0000 24051.9913 -135930.7546 233.8504 -159982.7459 -135904.6698 218.1909 -99.2321 -20.2697 522634.7433 -12.6203 -12.2447
ENERGY: 2000 1471.9966 2180.4664 3129.9571 0.0000 -183688.0542 23286.5868 781.2437 0.0000 27844.8405 -124992.9630 270.7272 -152837.8035 -124961.7991 264.9932 -29.0297 -43.0055 516155.7084 -26.1081 -25.1264
ENERGY: 3000 1502.4383 2224.8094 3129.8619 0.0000 -178802.4749 21497.7862 809.7948 0.0000 29695.4322 -119942.3520 288.7199 -149637.7843 -119905.1280 284.8585 -80.7888 -25.9530 509912.6816 -26.9611 -26.9482
ENERGY: 4000 1534.0156 2239.5792 3127.0187 0.0000 -176632.4778 20651.2849 786.8932 0.0000 30333.3410 -117960.3452 294.9221 -148293.6862 -117907.0843 293.6206 -66.2770 -3.9442 507892.2455 3.4902 3.6908
ENERGY: 5000 1557.3631 2234.9451 3138.4025 0.0000 -175966.0006 20428.0210 807.1656 0.0000 30711.6613 -117088.4420 298.6004 -147800.1033 -117050.3363 297.3648 -52.7736 -27.6277 504148.7481 -5.1736 -4.9411
TCL: Setting parameter constraintScaling to 5.0
TCL: Running for 5000 steps
ETITLE: TS BOND ANGLE DIHED IMPRP ELECT VDW BOUNDARY MISC KINETIC TOTAL TEMP POTENTIAL TOTAL3 TEMPAVG PRESSURE GPRESSURE VOLUME PRESSAVG GPRESSAVG
ENERGY: 5000 1557.3631 2234.9451 3138.4025 0.0000 -175966.0006 20428.0210 403.5828 0.0000 30709.5933 -117494.0928 298.5803 -148203.6861 -117450.3400 298.5803 -58.5215 -37.2242 504148.7481 -58.5215 -37.2242
ENERGY: 6000 1564.5791 2254.2406 3151.1875 0.0000 -175836.2343 20342.4792 676.8071 0.0000 30775.0726 -117071.8682 299.2169 -147846.9408 -117022.7077 297.7390 35.1114 16.0011 503909.1266 6.2051 6.4616
ENERGY: 7000 1602.3909 2305.2370 3164.0809 0.0000 -175643.4207 20144.5614 673.4821 0.0000 30663.5944 -117090.0738 298.1331 -147753.6682 -117045.6992 298.4336 11.5891 -8.1265 502326.2540 -2.9903 -3.4293
ENERGY: 8000 1562.8663 2267.1348 3173.9460 0.0000 -175979.9337 20485.1702 660.9544 0.0000 30746.8759 -117082.9861 298.9428 -147829.8620 -117033.9114 297.6869 -5.2351 35.1236 502066.8868 -0.8923 -1.5632
ENERGY: 9000 1551.1520 2225.3721 3131.8687 0.0000 -175638.7933 20146.8219 644.1950 0.0000 30713.2163 -117226.1672 298.6155 -147939.3835 -117176.0677 298.7907 32.3962 36.0544 501177.6323 -4.7932 -4.4010
ENERGY: 10000 1591.4558 2332.9969 3153.2548 0.0000 -175497.4975 19961.0860 643.1404 0.0000 30976.1081 -116839.4555 301.1716 -147815.5636 -116785.7032 300.3252 66.5548 8.2807 500342.2532 -0.4788 -0.4262
TCL: Setting parameter constraintScaling to 2.5
TCL: Running for 5000 steps
ETITLE: TS BOND ANGLE DIHED IMPRP ELECT VDW BOUNDARY MISC KINETIC TOTAL TEMP POTENTIAL TOTAL3 TEMPAVG PRESSURE GPRESSURE VOLUME PRESSAVG GPRESSAVG
ENERGY: 10000 1591.4558 2332.9969 3153.2548 0.0000 -175497.4975 19961.0860 321.5702 0.0000 30974.0634 -117163.0704 301.1517 -148137.1338 -117120.4511 301.1517 -12.8874 -68.3025 500342.2532 -12.8874 -68.3025
ENERGY: 11000 1631.8160 2342.6867 3203.3365 0.0000 -175525.7366 20199.8054 547.1678 0.0000 30916.2004 -116684.7236 300.5891 -147600.9241 -116638.2964 300.9177 -38.8211 -36.7670 500831.7155 -8.7122 -8.4234
ENERGY: 12000 1575.2842 2349.4061 3189.7538 0.0000 -175625.9444 20141.2936 494.0261 0.0000 31041.9781 -116834.2024 301.8120 -147876.1805 -116787.9230 300.3836 -54.3276 18.3672 501907.6847 6.1781 6.0642
ENERGY: 13000 1610.0751 2342.4016 3165.4294 0.0000 -175485.6438 19954.9694 489.4034 0.0000 30821.5283 -117101.8367 299.6686 -147923.3650 -117065.0120 300.3837 -41.5895 15.6142 500806.7075 -3.5632 -3.8682
ENERGY: 14000 1667.1465 2403.6263 3171.7008 0.0000 -175153.0412 19762.5293 497.5033 0.0000 30998.4274 -116652.1076 301.3886 -147650.5350 -116612.1279 300.7810 -8.7035 52.8680 500891.7894 2.8285 3.1542
ENERGY: 15000 1607.0200 2404.5465 3161.0288 0.0000 -175642.1426 20030.8424 501.9104 0.0000 30953.0812 -116983.7134 300.9477 -147936.7945 -116947.6862 300.0983 -67.4881 -68.5638 500288.2489 4.3515 4.3387
TCL: Setting parameter constraintScaling to 1.25
TCL: Running for 5000 steps
ETITLE: TS BOND ANGLE DIHED IMPRP ELECT VDW BOUNDARY MISC KINETIC TOTAL TEMP POTENTIAL TOTAL3 TEMPAVG PRESSURE GPRESSURE VOLUME PRESSAVG GPRESSAVG
ENERGY: 15000 1607.0200 2404.5465 3161.0288 0.0000 -175642.1426 20030.8424 250.9552 0.0000 30951.0340 -117236.7158 300.9278 -148187.7497 -117195.2747 300.9278 -96.7329 -91.6171 500288.2489 -96.7329 -91.6171
ENERGY: 16000 1535.8225 2382.0191 3154.9392 0.0000 -175366.9238 19862.5098 415.1715 0.0000 30912.2249 -117104.2367 300.5504 -148016.4616 -117056.2572 300.1964 -59.4884 -21.4434 501075.0269 8.4029 7.9955
ENERGY: 17000 1601.1484 2368.1922 3203.0927 0.0000 -175658.5697 20255.6741 407.5210 0.0000 30760.5216 -117062.4196 299.0755 -147822.9412 -117015.5893 299.5218 -19.0446 90.4279 500996.6345 -0.5080 -0.3192
ENERGY: 18000 1611.7659 2404.4929 3186.7429 0.0000 -175584.3726 20149.6772 396.0764 0.0000 30855.2947 -116980.3225 299.9969 -147835.6172 -116939.3197 300.5215 24.1721 11.1849 500789.2801 -5.9637 -5.9524
ENERGY: 19000 1605.6553 2383.8712 3175.4927 0.0000 -175678.9384 20055.3817 405.1403 0.0000 31000.0835 -117053.3135 301.4047 -148053.3971 -117012.4104 301.0299 -16.4692 23.8436 501095.0662 2.6051 2.4906
ENERGY: 20000 1593.9225 2410.2901 3184.3492 0.0000 -175686.5601 20056.5732 398.7076 0.0000 30787.1541 -117255.5636 299.3344 -148042.7177 -117204.5920 299.5794 -35.4167 41.9885 497965.3478 -13.3642 -13.1852
TCL: Setting parameter constraintScaling to 0.625
TCL: Running for 5000 steps
ETITLE: TS BOND ANGLE DIHED IMPRP ELECT VDW BOUNDARY MISC KINETIC TOTAL TEMP POTENTIAL TOTAL3 TEMPAVG PRESSURE GPRESSURE VOLUME PRESSAVG GPRESSAVG
ENERGY: 20000 1593.9225 2410.2901 3184.3492 0.0000 -175686.5602 20056.5732 199.3538 0.0000 30785.1210 -117456.9504 299.3146 -148242.0714 -117411.6643 299.3146 -41.7207 38.0572 497965.3478 -41.7207 38.0572
ENERGY: 21000 1612.7307 2439.1262 3175.5283 0.0000 -176087.0238 20119.8435 305.3697 0.0000 30889.0071 -117545.4184 300.3247 -148434.4254 -117508.2775 299.9353 -106.8862 -60.4857 496097.6584 -12.8766 -13.1355
ENERGY: 22000 1598.6978 2475.4535 3210.3077 0.0000 -175539.3659 19971.6143 317.5341 0.0000 30796.1021 -117169.6563 299.4214 -147965.7585 -117133.5383 299.9560 191.6426 125.5175 497510.4609 14.1406 14.2400
ENERGY: 23000 1616.3150 2375.0180 3193.3511 0.0000 -175759.2919 20082.7803 323.6737 0.0000 31074.7072 -117093.4465 302.1302 -148168.1537 -117051.9321 300.4814 -74.9476 -34.5153 498242.8504 4.7562 4.3564
ENERGY: 24000 1641.1545 2416.2038 3191.2365 0.0000 -175768.3602 20089.7504 302.7721 0.0000 30768.2571 -117358.9857 299.1507 -148127.2429 -117312.9957 299.4574 -28.2518 37.1357 497977.9479 -9.5416 -9.3962
ENERGY: 25000 1552.0999 2397.8051 3210.7541 0.0000 -175747.1684 20020.1650 310.6065 0.0000 30764.5094 -117491.2285 299.1142 -148255.7379 -117436.9062 299.9364 17.0217 -14.7130 497654.7226 -9.1046 -9.2289
TCL: Setting parameter constraintScaling to 0.3125
TCL: Running for 5000 steps
ETITLE: TS BOND ANGLE DIHED IMPRP ELECT VDW BOUNDARY MISC KINETIC TOTAL TEMP POTENTIAL TOTAL3 TEMPAVG PRESSURE GPRESSURE VOLUME PRESSAVG GPRESSAVG
ENERGY: 25000 1552.0999 2397.8051 3210.7541 0.0000 -175747.1684 20020.1650 155.3032 0.0000 30762.4555 -117648.5856 299.0943 -148411.0411 -117603.0329 299.0943 6.2366 -25.5241 497654.7226 6.2366 -25.5241
ENERGY: 26000 1599.2140 2419.3185 3196.1235 0.0000 -175693.0716 19883.2917 253.7496 0.0000 30940.0033 -117401.3709 300.8205 -148341.3742 -117337.5406 299.5867 -105.2696 -68.1121 496893.7045 2.8564 2.4625
ENERGY: 27000 1601.8631 2361.6166 3216.9321 0.0000 -175854.1891 20040.0276 246.8934 0.0000 30938.4508 -117448.4056 300.8054 -148386.8564 -117404.2978 299.6350 -82.6653 -46.2648 497384.4323 1.4809 1.6009
ENERGY: 28000 1606.5980 2317.5374 3192.0906 0.0000 -176025.9337 20154.1567 256.0569 0.0000 30744.1101 -117755.3840 298.9159 -148499.4941 -117706.2191 299.3196 -4.8116 14.4468 497021.0905 17.0188 17.8777
ENERGY: 29000 1654.7544 2403.4161 3182.1041 0.0000 -175979.8049 19993.9384 245.2229 0.0000 30811.2877 -117689.0814 299.5691 -148500.3691 -117653.1632 299.4238 -4.5446 -3.1482 498793.8808 7.1909 7.1468
ENERGY: 30000 1639.8538 2413.2703 3208.1501 0.0000 -175889.3008 20170.6172 239.2045 0.0000 30741.7516 -117476.4534 298.8930 -148218.2050 -117435.2303 299.6211 -30.4870 -10.0977 497827.8807 -6.9850 -6.7213
TCL: Setting parameter constraintScaling to 0.15625
TCL: Running for 5000 steps
ETITLE: TS BOND ANGLE DIHED IMPRP ELECT VDW BOUNDARY MISC KINETIC TOTAL TEMP POTENTIAL TOTAL3 TEMPAVG PRESSURE GPRESSURE VOLUME PRESSAVG GPRESSAVG
ENERGY: 30000 1639.8538 2413.2703 3208.1501 0.0000 -175889.3008 20170.6172 119.6022 0.0000 30739.7086 -117598.0986 298.8731 -148337.8072 -117554.4164 298.8731 -36.7873 -24.3446 497827.8807 -36.7873 -24.3446
ENERGY: 31000 1593.6098 2381.1272 3165.8573 0.0000 -175921.3660 19899.0860 166.9649 0.0000 30744.3646 -117970.3563 298.9184 -148714.7208 -117921.6872 298.2888 54.6386 63.4192 496556.9078 -8.6336 -8.4871
ENERGY: 32000 1610.8507 2444.8703 3230.2737 0.0000 -176054.4606 20081.0493 189.3549 0.0000 30758.5808 -117739.4809 299.0566 -148498.0617 -117693.7357 298.6695 75.7258 19.5107 497456.6053 -9.4722 -9.4527
ENERGY: 33000 1634.5239 2394.5234 3194.8895 0.0000 -175646.2699 19889.2790 176.2826 0.0000 30894.6185 -117462.1531 300.3793 -148356.7716 -117415.7074 299.1827 -64.8761 -86.1463 497448.5500 2.2612 2.3106
ENERGY: 34000 1617.9665 2363.4941 3225.2014 0.0000 -175886.0056 20049.3811 193.8021 0.0000 30697.2552 -117738.9052 298.4603 -148436.1604 -117695.6075 299.1702 -47.2377 -60.0778 496844.6989 -2.0848 -1.8393
ENERGY: 35000 1624.9802 2372.8959 3236.1865 0.0000 -176041.4445 20013.0726 195.2030 0.0000 30819.0250 -117780.0813 299.6443 -148599.1062 -117729.4146 298.4700 -119.8386 8.6504 495949.3682 6.1195 6.0516
TCL: Setting parameter constraintScaling to 0.078125
TCL: Running for 5000 steps
ETITLE: TS BOND ANGLE DIHED IMPRP ELECT VDW BOUNDARY MISC KINETIC TOTAL TEMP POTENTIAL TOTAL3 TEMPAVG PRESSURE GPRESSURE VOLUME PRESSAVG GPRESSAVG
ENERGY: 35000 1624.9802 2372.8959 3236.1865 0.0000 -176041.4445 20013.0726 97.6015 0.0000 30816.9712 -117879.7366 299.6243 -148696.7078 -117836.3412 299.6243 -148.0664 -16.6996 495949.3682 -148.0664 -16.6996
ENERGY: 36000 1751.1570 2384.5300 3195.3075 0.0000 -175670.9438 19955.9605 140.2472 0.0000 30717.8885 -117525.8530 298.6610 -148243.7415 -117485.7990 299.4958 -130.2268 -0.2212 496448.7486 -1.0422 -0.8979
ENERGY: 37000 1619.4348 2414.8972 3252.5469 0.0000 -175777.2399 19862.4356 151.6495 0.0000 31085.3856 -117390.8903 302.2340 -148476.2759 -117347.6391 300.7233 12.2974 109.8529 494704.4010 -6.4113 -6.4384
ENERGY: 38000 1653.7882 2432.0110 3228.6524 0.0000 -175448.8451 19868.9986 158.4954 0.0000 30951.7621 -117155.1374 300.9348 -148106.8995 -117096.4240 300.3596 51.0487 4.6375 497048.4452 10.3517 10.2489
ENERGY: 39000 1614.3998 2392.6501 3264.4877 0.0000 -175670.1798 20054.4103 159.9827 0.0000 30560.3963 -117623.8528 297.1297 -148184.2491 -117572.9512 298.8307 71.4874 51.6494 496294.4850 -5.5316 -6.1235
ENERGY: 40000 1649.9794 2458.4137 3194.7678 0.0000 -175991.8652 20300.8542 165.5366 0.0000 30814.2277 -117408.0858 299.5976 -148222.3135 -117370.4684 299.6499 183.6194 95.9177 497958.2407 0.0137 0.2624
TCL: Setting parameter constraintScaling to 0.0390625
TCL: Running for 5000 steps
ETITLE: TS BOND ANGLE DIHED IMPRP ELECT VDW BOUNDARY MISC KINETIC TOTAL TEMP POTENTIAL TOTAL3 TEMPAVG PRESSURE GPRESSURE VOLUME PRESSAVG GPRESSAVG
ENERGY: 40000 1649.9794 2458.4137 3194.7678 0.0000 -175991.8652 20300.8542 82.7683 0.0000 30812.1678 -117492.9140 299.5776 -148305.0818 -117451.4701 299.5776 175.0627 86.2720 497958.2407 175.0627 86.2720
ENERGY: 41000 1636.5314 2454.1274 3231.3357 0.0000 -175807.3364 20046.9627 109.4927 0.0000 30778.3437 -117550.5428 299.2487 -148328.8865 -117511.0406 299.8251 -5.1070 0.3876 497365.3143 0.7887 0.4871
ENERGY: 42000 1657.1288 2371.8602 3199.2175 0.0000 -175474.5598 19979.4061 126.7780 0.0000 30614.4182 -117525.7510 297.6549 -148140.1692 -117487.9356 299.2394 -107.4538 -18.7415 497847.0446 5.6741 5.8194
ENERGY: 43000 1602.8336 2446.3882 3192.3448 0.0000 -175957.6784 20221.6689 119.3685 0.0000 30898.1148 -117476.9597 300.4132 -148375.0745 -117421.1234 299.9905 -40.7118 15.4506 497966.5800 6.5508 6.7181
ENERGY: 44000 1584.0187 2429.7901 3230.4117 0.0000 -175846.9821 20088.9820 135.0306 0.0000 30923.9736 -117454.7753 300.6647 -148378.7490 -117403.5107 300.2593 11.8596 61.2122 496788.8404 -1.8600 -1.8712
ENERGY: 45000 1576.4864 2421.0978 3248.4705 0.0000 -175494.9471 19941.5670 133.1646 0.0000 30833.2254 -117340.9353 299.7823 -148174.1607 -117300.0531 300.0696 -3.6917 -22.8487 497717.1446 -2.2286 -2.6578
TCL: Setting parameter constraintScaling to 0.01953125
TCL: Running for 5000 steps
ETITLE: TS BOND ANGLE DIHED IMPRP ELECT VDW BOUNDARY MISC KINETIC TOTAL TEMP POTENTIAL TOTAL3 TEMPAVG PRESSURE GPRESSURE VOLUME PRESSAVG GPRESSAVG
ENERGY: 45000 1576.4864 2421.0978 3248.4705 0.0000 -175494.9471 19941.5670 66.5823 0.0000 30831.1636 -117409.5794 299.7623 -148240.7430 -117362.8288 299.7623 -18.3829 -33.1568 497717.1446 -18.3829 -33.1568
ENERGY: 46000 1644.6260 2375.7896 3271.3862 0.0000 -176215.6700 20123.3985 78.2070 0.0000 30799.0621 -117923.2004 299.4502 -148722.2625 -117869.6432 299.1438 -97.6784 -103.1919 495927.4847 -7.5452 -7.5851
ENERGY: 47000 1608.4839 2374.6386 3201.5209 0.0000 -176054.0659 19974.4715 84.3771 0.0000 30658.3561 -118152.2178 298.0821 -148810.5739 -118097.6480 297.7442 -20.2287 -25.2991 495985.3509 6.5863 6.4228
ENERGY: 48000 1609.2122 2418.9057 3244.1225 0.0000 -176232.2619 20051.9027 86.6783 0.0000 30798.7556 -118022.6850 299.4472 -148821.4406 -117985.8303 299.3863 -51.3618 -79.4099 496942.3562 8.3496 7.7484
ENERGY: 49000 1624.3863 2401.7575 3198.0701 0.0000 -175794.3665 19895.0854 93.6246 0.0000 30663.5123 -117917.9303 298.1323 -148581.4426 -117876.9973 298.7773 54.4165 1.7370 495996.0118 4.1451 3.8718
ENERGY: 50000 1659.6020 2366.6323 3217.0952 0.0000 -176186.9658 20238.9703 96.2331 0.0000 30787.6146 -117820.8183 299.3389 -148608.4329 -117778.6907 299.6202 33.9043 70.6171 496366.2551 -1.4011 -1.5612
TCL: Setting parameter constraintScaling to 0
TCL: Running for 5000 steps
ETITLE: TS BOND ANGLE DIHED IMPRP ELECT VDW BOUNDARY MISC KINETIC TOTAL TEMP POTENTIAL TOTAL3 TEMPAVG PRESSURE GPRESSURE VOLUME PRESSAVG GPRESSAVG
ENERGY: 50000 1659.6020 2366.6323 3217.0952 0.0000 -176186.9658 20238.9703 0.0000 0.0000 30785.5762 -117919.0898 299.3191 -148704.6661 -117879.1322 299.3191 19.7094 65.9387 496366.2551 19.7094 65.9387
ENERGY: 51000 1620.8297 2402.1289 3220.8593 0.0000 -176465.2321 20164.2954 0.0000 0.0000 30814.4625 -118242.6564 299.5999 -149057.1189 -118204.3654 298.6997 79.5936 59.4455 496377.0980 -15.5514 -15.6772
ENERGY: 52000 1622.5115 2420.5455 3219.2245 0.0000 -175979.0161 20046.5859 0.0000 0.0000 30790.8742 -117879.2745 299.3706 -148670.1488 -117825.9379 299.4410 66.4426 -48.2013 497124.6645 -2.4973 -2.3183
ENERGY: 53000 1627.4473 2434.9289 3189.5785 0.0000 -176123.0842 20135.2546 0.0000 0.0000 31082.4476 -117653.4272 302.2055 -148735.8749 -117607.2579 300.2135 92.4711 54.4530 497011.0018 6.4732 6.6354
ENERGY: 54000 1564.9636 2407.5869 3235.9807 0.0000 -175560.6942 19967.6147 0.0000 0.0000 30659.1485 -117725.3999 298.0898 -148384.5484 -117684.5337 300.5929 78.1019 27.6914 497714.9428 -6.0464 -4.5624
ENERGY: 55000 1612.4410 2338.3118 3209.4606 0.0000 -175704.0449 20009.1246 0.0000 0.0000 30802.4138 -117732.2931 299.4828 -148534.7069 -117690.7612 299.7889 122.6813 123.9797 497154.6121 -1.1296 -0.7144
