Info: SIMULATION PARAMETERS:
Info: TIMESTEP               1
Info: NUMBER OF STEPS        0
Info: STEPS PER CYCLE        10
Info: PERIODIC CELL BASIS 1  72.449 0 0
Info: PERIODIC CELL BASIS 2  0 93.247 0
Info: PERIODIC CELL BASIS 3  0 0 79.185
Info: PERIODIC CELL CENTER   -0.248 -0.156 -0.047
Info: WRAPPING WATERS AROUND PERIODIC BOUNDARIES ON OUTPUT.
Info: WRAPPING ALL CLUSTERS AROUND PERIODIC BOUNDARIES ON OUTPUT.
Info: FIRST LDB TIMESTEP     50
Info: LAST LDB TIMESTEP     -1
Info: HOM BACKGROUND SCALING 1
Info: PME BACKGROUND SCALING 1
Info: MIN ATOMS PER PATCH    40
Info: VELOCITY FILE          ../replicas/rep15/equilibration/eq1.vel
Info: CENTER OF MASS MOVING INITIALLY? NO
Info: DIELECTRIC             1
Info: EXCLUDE                SCALED ONE-FOUR
Info: 1-4 ELECTROSTATICS SCALED BY 0.833333
Info: MODIFIED 1-4 VDW PARAMETERS WILL BE USED
Info: DCD FILENAME           ../replicas/rep15/equilibration/eq2.dcd
Info: DCD FREQUENCY          5000
Info: DCD FIRST STEP         5000
Info: DCD FILE WILL CONTAIN UNIT CELL DATA
Info: XST FILENAME           ../replicas/rep15/equilibration/eq2.xst
Info: XST FREQUENCY          5000
Info: NO VELOCITY DCD OUTPUT
Info: NO FORCE DCD OUTPUT
Info: OUTPUT FILENAME        ../replicas/rep15/equilibration/eq2
Info: RESTART FILENAME       ../replicas/rep15/equilibration/eq2.restart
Info: RESTART FREQUENCY      5000
Info: BINARY RESTART FILES WILL BE USED
Info: SWITCHING ACTIVE
Info: SWITCHING ON           10
Info: SWITCHING OFF          12
Info: PAIRLIST DISTANCE      13.5
Info: PAIRLIST SHRINK RATE   0.01
Info: PAIRLIST GROW RATE     0.01
Info: PAIRLIST TRIGGER       0.3
Info: PAIRLISTS PER CYCLE    2
Info: PAIRLISTS ENABLED
Info: MARGIN                 0.48
Info: HYDROGEN GROUP CUTOFF  2.5
Info: PATCH DIMENSION        16.48
Info: ENERGY OUTPUT STEPS    500
Info: CROSSTERM ENERGY INCLUDED IN DIHEDRAL
Info: TIMING OUTPUT STEPS    5000
Info: PRESSURE OUTPUT STEPS  500
Info: HARMONIC CONSTRAINTS ACTIVE
Info: HARMONIC CONS EXP      2
Info: HARMONIC CONS SCALING  10
Info: LANGEVIN DYNAMICS ACTIVE
Info: LANGEVIN TEMPERATURE   300
Info: LANGEVIN USING BBK INTEGRATOR
Info: LANGEVIN DAMPING COEFFICIENT IS 5 INVERSE PS
Info: LANGEVIN DYNAMICS NOT APPLIED TO HYDROGENS
Info: BERENDSEN PRESSURE COUPLING ACTIVE
Info:     TARGET PRESSURE IS 1 BAR
Info:     COMPRESSIBILITY ESTIMATE IS 4.57e-05 BAR^(-1)
Info:     RELAXATION TIME IS 100 FS
Info:     APPLIED EVERY 2 STEPS
Info:     PRESSURE CONTROL IS GROUP-BASED
Info:       CELL FLUCTUATION IS ISOTROPIC
Info: PARTICLE MESH EWALD (PME) ACTIVE
Info: PME TOLERANCE               1e-06
Info: PME EWALD COEFFICIENT       0.257952
Info: PME INTERPOLATION ORDER     4
Info: PME GRID DIMENSIONS         80 96 80
Info: PME MAXIMUM GRID SPACING    1
Info: FULL ELECTROSTATIC EVALUATION FREQUENCY      2
Info: USING VERLET I (r-RESPA) MTS SCHEME.
Info: C1 SPLITTING OF LONG RANGE ELECTROSTATICS
Info: PLACING ATOMS IN PATCHES BY HYDROGEN GROUPS
Info: RIGID BONDS TO HYDROGEN : WATER
Info:         ERROR TOLERANCE : 1e-05
Info:          MAX ITERATIONS : 100
Info: RIGID WATER USING SETTLE ALGORITHM
Info: RANDOM NUMBER SEED     1503264134
Info: USE HYDROGEN BONDS?    NO
Info: Using AMBER format force field!
Info: AMBER PARM FILE        ../build/complex.top
Info: COORDINATE PDB         ../replicas/rep15/equilibration/eq1.coor
Info: Exclusions in PARM file will be ignored!
Info: SCNB (VDW SCALING)     2
Info: USING ARITHMETIC MEAN TO COMBINE L-J SIGMA PARAMETERS
Info: SUMMARY OF PARAMETERS:
Info: 71 BONDS
Info: 145 ANGLES
Info: 76 DIHEDRAL
Info: 0 IMPROPER
Info: 0 CROSSTERM
Info: 0 VDW
Info: 190 VDW_PAIRS
Info: 0 NBTHOLE_PAIRS
Info: STRUCTURE SUMMARY:
Info: 49394 ATOMS
Info: 49448 BONDS
Info: 8698 ANGLES
Info: 18780 DIHEDRALS
Info: 0 IMPROPERS
Info: 0 CROSSTERMS
Info: 0 EXCLUSIONS
Info: 2336 CONSTRAINTS
Info: 44667 RIGID BONDS
Info: 103515 DEGREES OF FREEDOM
Info: 17225 HYDROGEN GROUPS
Info: 4 ATOMS IN LARGEST HYDROGEN GROUP
Info: 17225 MIGRATION GROUPS
Info: 4 ATOMS IN LARGEST MIGRATION GROUP
Info: TOTAL MASS = 301478 amu
Info: TOTAL CHARGE = 1.00115e-05 e
Info: MASS DENSITY = 0.935846 g/cm^3
Info: ATOM DENSITY = 0.0923345 atoms/A^3
Info: ADDED 70656 IMPLICIT EXCLUSIONS
Info: NONBONDED TABLE R-SQUARED SPACING: 0.0625
Info: NONBONDED TABLE SIZE: 769 POINTS
Info: REMOVING COM VELOCITY -0.00740476 -5.73578e-05 0.0471696
TCL: Running for 5000 steps
ETITLE: TS BOND ANGLE DIHED IMPRP ELECT VDW BOUNDARY MISC KINETIC TOTAL TEMP POTENTIAL TOTAL3 TEMPAVG PRESSURE GPRESSURE VOLUME PRESSAVG GPRESSAVG
ENERGY: 0 393.7700 1202.2007 2929.8025 0.0000 -212827.8725 29537.9829 0.0000 0.0000 9982.3383 -168781.7781 97.0553 -178764.1164 -168772.2091 97.0553 -2389.4674 -2491.9754 534946.2959 -2389.4674 -2491.9754
ENERGY: 1000 1276.6661 1969.2144 3096.1486 0.0000 -193900.2734 26641.4856 762.0862 0.0000 24069.8203 -136084.8521 234.0238 -160154.6724 -136040.8804 218.4695 -63.6866 -35.6605 522917.7666 -14.3938 -14.0850
ENERGY: 2000 1419.1858 2071.8543 3121.7395 0.0000 -184147.7939 23282.4201 792.4965 0.0000 28033.0384 -125427.0593 272.5570 -153460.0977 -125387.4399 263.6419 -107.9634 -18.7877 516779.3622 -26.6695 -26.5088
ENERGY: 3000 1557.2967 2176.4301 3140.6806 0.0000 -179241.0826 21542.0081 814.4467 0.0000 29553.8447 -120456.3758 287.3433 -150010.2205 -120403.2079 284.6753 10.6181 -15.4161 511563.9082 -17.7141 -17.9279
ENERGY: 4000 1547.6235 2333.6443 3131.5621 0.0000 -177255.8507 20972.1370 801.5210 0.0000 30273.1591 -118196.2038 294.3370 -148469.3629 -118155.5075 292.3758 20.7444 40.3309 509104.6254 -1.8408 -1.9318
ENERGY: 5000 1545.2500 2277.8236 3162.6839 0.0000 -175795.0351 20422.4690 794.5516 0.0000 30554.0408 -117038.2161 297.0679 -147592.2569 -116999.0929 296.5257 -4.9087 28.6003 506536.3737 -3.9573 -3.8413
TCL: Setting parameter constraintScaling to 5.0
TCL: Running for 5000 steps
ETITLE: TS BOND ANGLE DIHED IMPRP ELECT VDW BOUNDARY MISC KINETIC TOTAL TEMP POTENTIAL TOTAL3 TEMPAVG PRESSURE GPRESSURE VOLUME PRESSAVG GPRESSAVG
ENERGY: 5000 1545.2500 2277.8236 3162.6839 0.0000 -175795.0351 20422.4690 397.2758 0.0000 30551.9968 -117437.5360 297.0480 -147989.5327 -117395.3975 297.0480 -53.2699 -26.2779 506536.3737 -53.2699 -26.2779
ENERGY: 6000 1604.5388 2259.1104 3189.5610 0.0000 -175811.7866 20539.4211 646.7945 0.0000 30913.7992 -116658.5616 300.5657 -147572.3608 -116608.1438 299.5331 20.5203 -5.5616 505206.0255 -15.5453 -15.8776
ENERGY: 7000 1635.5375 2310.1926 3161.6373 0.0000 -175178.2332 20179.7679 635.1288 0.0000 30781.9176 -116474.0516 299.2835 -147255.9692 -116421.8087 299.6079 -3.5859 64.1858 506334.4583 6.1781 5.5544
ENERGY: 8000 1611.2259 2326.5556 3170.0151 0.0000 -175838.6149 20524.4395 637.0771 0.0000 30628.7346 -116940.5671 297.7941 -147569.3017 -116896.5899 298.6537 -2.5218 -22.8478 503799.1658 -11.2240 -11.0154
ENERGY: 9000 1583.9478 2311.7713 3157.6224 0.0000 -175261.4308 19928.6927 690.6225 0.0000 30604.1463 -116984.6278 297.5551 -147588.7741 -116945.2310 298.4289 16.3976 -7.0532 502118.1592 -8.2807 -8.6630
ENERGY: 10000 1623.6174 2237.5807 3148.4322 0.0000 -175106.7157 20063.5107 634.1704 0.0000 30932.9850 -116466.4193 300.7523 -147399.4043 -116434.7370 300.8343 -15.6442 -12.6788 501628.4436 -2.3385 -2.6652
TCL: Setting parameter constraintScaling to 2.5
TCL: Running for 5000 steps
ETITLE: TS BOND ANGLE DIHED IMPRP ELECT VDW BOUNDARY MISC KINETIC TOTAL TEMP POTENTIAL TOTAL3 TEMPAVG PRESSURE GPRESSURE VOLUME PRESSAVG GPRESSAVG
ENERGY: 10000 1623.6174 2237.5807 3148.4322 0.0000 -175106.7157 20063.5107 317.0852 0.0000 30930.9401 -116785.5494 300.7324 -147716.4895 -116744.0202 300.7324 -51.5783 -51.6714 501628.4436 -51.5783 -51.6714
ENERGY: 11000 1624.0954 2290.3722 3161.3620 0.0000 -175589.0359 20188.9377 503.2529 0.0000 31014.0775 -116806.9382 301.5407 -147821.0157 -116766.2855 300.1682 -175.6233 -52.0197 501557.8137 -0.9485 -1.2135
ENERGY: 12000 1658.1334 2298.7435 3176.2720 0.0000 -175443.8477 19977.3349 500.9470 0.0000 30586.6739 -117245.7430 297.3852 -147832.4169 -117205.1007 299.5355 -45.0691 -2.7489 501474.4390 -0.0767 -0.1307
ENERGY: 13000 1583.7667 2270.5793 3159.8100 0.0000 -175467.5235 20057.5947 533.7847 0.0000 30849.0003 -117012.9878 299.9357 -147861.9881 -116972.8207 299.4533 -90.0186 -55.7807 500783.2376 -1.0691 -1.3808
ENERGY: 14000 1594.9913 2305.3761 3188.4768 0.0000 -175917.1511 20257.2896 500.2129 0.0000 30981.5804 -117089.2241 301.2248 -148070.8044 -117048.7795 299.1066 -59.7310 -24.8186 501596.4404 -4.1073 -3.7446
ENERGY: 15000 1607.5395 2333.7762 3189.0115 0.0000 -175287.6287 19916.5819 498.2790 0.0000 31001.2026 -116741.2380 301.4155 -147742.4406 -116696.1205 300.0742 -59.4990 -5.9664 500042.1433 -2.1141 -2.0220
TCL: Setting parameter constraintScaling to 1.25
TCL: Running for 5000 steps
ETITLE: TS BOND ANGLE DIHED IMPRP ELECT VDW BOUNDARY MISC KINETIC TOTAL TEMP POTENTIAL TOTAL3 TEMPAVG PRESSURE GPRESSURE VOLUME PRESSAVG GPRESSAVG
ENERGY: 15000 1607.5395 2333.7762 3189.0115 0.0000 -175287.6286 19916.5819 249.1395 0.0000 30999.1598 -116992.4203 301.3957 -147991.5801 -116950.6206 301.3957 -136.6659 -77.7332 500042.1433 -136.6659 -77.7332
ENERGY: 16000 1581.5563 2356.1443 3224.6788 0.0000 -175622.0916 20189.1927 404.8883 0.0000 30853.2518 -117012.3794 299.9771 -147865.6312 -116958.6938 300.2073 -24.9342 -20.5304 499502.7524 7.1581 6.6146
ENERGY: 17000 1663.6132 2365.9241 3182.8100 0.0000 -175558.1795 20096.4232 414.3216 0.0000 30790.7336 -117044.3538 299.3692 -147835.0874 -116997.1331 299.0059 -54.7227 -57.9527 500207.5394 -2.6700 -2.9618
ENERGY: 18000 1572.3138 2351.5777 3193.5486 0.0000 -175871.8005 20078.1496 420.6286 0.0000 30769.8575 -117485.7246 299.1662 -148255.5821 -117447.0494 299.0466 -159.8129 -84.5499 499490.4993 -12.5168 -12.6677
ENERGY: 19000 1654.4148 2405.9468 3212.7407 0.0000 -175731.3398 20179.2607 389.7794 0.0000 30663.4751 -117225.7222 298.1319 -147889.1973 -117171.0968 298.6099 65.1053 -21.5274 498142.0724 -15.0726 -14.9770
ENERGY: 20000 1583.0473 2414.0034 3186.2190 0.0000 -175660.7381 19960.9952 413.9032 0.0000 30778.7937 -117323.7762 299.2531 -148102.5699 -117272.9712 299.8047 -16.6197 -30.1155 498291.8776 10.1803 10.6120
TCL: Setting parameter constraintScaling to 0.625
TCL: Running for 5000 steps
ETITLE: TS BOND ANGLE DIHED IMPRP ELECT VDW BOUNDARY MISC KINETIC TOTAL TEMP POTENTIAL TOTAL3 TEMPAVG PRESSURE GPRESSURE VOLUME PRESSAVG GPRESSAVG
ENERGY: 20000 1583.0473 2414.0034 3186.2190 0.0000 -175660.7381 19960.9952 206.9516 0.0000 30776.7568 -117532.7647 299.2333 -148309.5215 -117485.2072 299.2333 -82.6933 -92.4665 498291.8776 -82.6933 -92.4665
ENERGY: 21000 1594.4442 2368.4624 3220.2543 0.0000 -175777.6056 20174.3033 321.5454 0.0000 31038.7048 -117059.8912 301.7802 -148098.5961 -117013.6699 299.6277 -89.9772 -26.7100 498182.1281 8.0673 7.9300
ENERGY: 22000 1590.4700 2352.0199 3183.4366 0.0000 -175534.7550 20019.1076 311.6987 0.0000 30966.2875 -117111.7347 301.0761 -148078.0222 -117073.6180 300.3165 75.6554 30.8969 499442.8089 9.8689 9.8368
ENERGY: 23000 1651.3572 2379.8863 3210.3336 0.0000 -175339.9925 19926.1601 299.1175 0.0000 31053.4901 -116819.6478 301.9239 -147873.1380 -116772.9279 301.4781 -18.1199 -77.5416 498821.3820 7.7078 7.1477
ENERGY: 24000 1624.6604 2354.4213 3194.3593 0.0000 -175476.5867 19995.4951 323.4901 0.0000 30932.2972 -117051.8632 300.7456 -147984.1604 -117007.1630 301.1145 -81.3624 -119.4112 498654.1490 -1.0263 -1.1200
ENERGY: 25000 1622.3347 2413.0661 3222.1669 0.0000 -175317.4738 19904.9526 316.1332 0.0000 30688.9013 -117149.9191 298.3791 -147838.8203 -117111.5772 300.0557 -1.6366 -5.4025 498615.5802 -3.5934 -4.1314
TCL: Setting parameter constraintScaling to 0.3125
TCL: Running for 5000 steps
ETITLE: TS BOND ANGLE DIHED IMPRP ELECT VDW BOUNDARY MISC KINETIC TOTAL TEMP POTENTIAL TOTAL3 TEMPAVG PRESSURE GPRESSURE VOLUME PRESSAVG GPRESSAVG
ENERGY: 25000 1622.3347 2413.0661 3222.1669 0.0000 -175317.4738 19904.9526 158.0666 0.0000 30686.8777 -117310.0092 298.3595 -147996.8869 -117269.4239 298.3595 -58.0045 -67.9158 498615.5802 -58.0045 -67.9158
ENERGY: 26000 1643.3368 2482.9341 3214.2250 0.0000 -175789.6537 19870.8629 249.8539 0.0000 30926.8618 -117401.5794 300.6927 -148328.4411 -117363.6074 299.4559 -171.6882 -103.6602 497799.5639 0.8402 0.8710
ENERGY: 27000 1659.2458 2401.8577 3211.3374 0.0000 -176078.6106 20130.2247 232.8788 0.0000 30943.3023 -117499.7639 300.8526 -148443.0662 -117452.9773 300.5147 -29.5721 28.9006 498496.7868 -1.2198 -0.7563
ENERGY: 28000 1578.4706 2394.4722 3211.2335 0.0000 -175713.3461 20059.6108 262.9798 0.0000 30717.0536 -117489.5256 298.6528 -148206.5792 -117430.9984 299.3678 -82.5858 -52.0040 498502.6078 -8.4018 -8.3760
ENERGY: 29000 1615.4260 2383.8068 3206.3343 0.0000 -175922.6078 20072.6627 258.6229 0.0000 30811.0936 -117574.6615 299.5672 -148385.7550 -117521.0957 298.8779 -18.7406 -18.8139 496498.8196 -8.7573 -8.9522
ENERGY: 30000 1650.4182 2401.6890 3183.7874 0.0000 -176149.1829 20270.0331 266.6230 0.0000 30778.3196 -117598.3126 299.2485 -148376.6322 -117550.1383 298.9625 30.0106 46.1657 497795.7501 11.4495 11.4338
TCL: Setting parameter constraintScaling to 0.15625
TCL: Running for 5000 steps
ETITLE: TS BOND ANGLE DIHED IMPRP ELECT VDW BOUNDARY MISC KINETIC TOTAL TEMP POTENTIAL TOTAL3 TEMPAVG PRESSURE GPRESSURE VOLUME PRESSAVG GPRESSAVG
ENERGY: 30000 1650.4182 2401.6890 3183.7874 0.0000 -176149.1829 20270.0331 133.3115 0.0000 30776.2536 -117733.6901 299.2284 -148509.9437 -117689.0763 299.2284 4.2514 23.8458 497795.7501 4.2514 23.8458
ENERGY: 31000 1657.8850 2386.4855 3199.2321 0.0000 -175875.3518 20067.1735 193.0123 0.0000 30663.2269 -117708.3365 298.1295 -148371.5635 -117659.1592 298.3419 -42.5582 -4.6300 496355.4753 -7.9250 -7.0571
ENERGY: 32000 1670.3054 2401.2403 3213.6059 0.0000 -175856.4424 20053.0163 212.2980 0.0000 30928.3704 -117377.6062 300.7074 -148305.9766 -117335.8956 300.1328 -72.4870 38.0075 496721.4637 7.1464 7.7693
ENERGY: 33000 1633.4914 2468.9856 3209.5192 0.0000 -175636.0117 19840.0740 216.6946 0.0000 30911.6227 -117355.6242 300.5446 -148267.2469 -117309.4915 301.3548 62.7013 17.8665 497304.4441 3.8482 4.5450
ENERGY: 34000 1599.9473 2358.0451 3222.8418 0.0000 -175410.5802 19900.1145 201.4647 0.0000 30822.9449 -117305.2219 299.6824 -148128.1667 -117259.2491 299.4109 23.8681 -4.9153 498170.1668 4.5637 5.1039
ENERGY: 35000 1606.4100 2446.3350 3199.9599 0.0000 -175318.0613 20014.9712 218.6456 0.0000 30761.4317 -117070.3080 299.0843 -147831.7396 -117034.7171 300.6505 -127.1522 -70.5361 499226.6164 5.3554 5.1590
TCL: Setting parameter constraintScaling to 0.078125
TCL: Running for 5000 steps
ETITLE: TS BOND ANGLE DIHED IMPRP ELECT VDW BOUNDARY MISC KINETIC TOTAL TEMP POTENTIAL TOTAL3 TEMPAVG PRESSURE GPRESSURE VOLUME PRESSAVG GPRESSAVG
ENERGY: 35000 1606.4100 2446.3350 3199.9599 0.0000 -175318.0613 20014.9712 109.3228 0.0000 30759.3641 -117181.6984 299.0642 -147941.0624 -117137.7862 299.0642 -143.5673 -87.0501 499226.6164 -143.5673 -87.0501
ENERGY: 36000 1622.3296 2384.3102 3216.2059 0.0000 -175997.6316 20124.3312 142.0949 0.0000 30439.5978 -118068.7621 295.9552 -148508.3598 -118028.7073 298.5533 62.7897 72.3761 498210.8289 6.9372 6.7708
ENERGY: 37000 1602.4441 2439.9413 3227.8104 0.0000 -175663.3629 19878.0427 167.3569 0.0000 30492.7360 -117855.0316 296.4719 -148347.7676 -117815.3447 298.9029 -21.8264 -26.2175 496408.1624 -13.6903 -13.2886
ENERGY: 38000 1723.2009 2429.9627 3205.9661 0.0000 -175810.9886 19979.5297 168.4454 0.0000 30829.6943 -117474.1894 299.7480 -148303.8837 -117420.0621 299.2553 -71.2163 -17.6362 497245.9049 5.6063 5.2393
ENERGY: 39000 1614.8861 2394.9863 3221.7326 0.0000 -176064.5416 20188.4308 159.8305 0.0000 30777.9152 -117706.7601 299.2446 -148484.6753 -117655.3824 299.1895 -102.2761 1.9679 496686.3835 -1.5820 -1.6756
ENERGY: 40000 1604.6161 2385.1125 3208.1067 0.0000 -175708.9640 20024.2687 159.4971 0.0000 30635.5574 -117691.8055 297.8605 -148327.3629 -117641.2445 299.3073 -4.0733 -27.4231 497585.6056 5.6741 6.0512
TCL: Setting parameter constraintScaling to 0.0390625
TCL: Running for 5000 steps
ETITLE: TS BOND ANGLE DIHED IMPRP ELECT VDW BOUNDARY MISC KINETIC TOTAL TEMP POTENTIAL TOTAL3 TEMPAVG PRESSURE GPRESSURE VOLUME PRESSAVG GPRESSAVG
ENERGY: 40000 1604.6161 2385.1125 3208.1067 0.0000 -175708.9640 20024.2687 79.7486 0.0000 30633.4919 -117773.6196 297.8404 -148407.1115 -117726.5589 297.8404 -3.7362 -34.8569 497585.6056 -3.7362 -34.8569
ENERGY: 41000 1638.2142 2435.6743 3228.2619 0.0000 -175573.1070 19852.5420 121.7370 0.0000 30792.9938 -117503.6838 299.3912 -148296.6776 -117449.1788 299.2727 -47.1622 -44.7703 498122.6013 3.5354 3.6294
ENERGY: 42000 1670.8075 2338.5810 3226.3682 0.0000 -175495.8078 20045.9266 117.9399 0.0000 30833.7143 -117262.4704 299.7871 -148096.1846 -117214.2759 299.9544 -30.1849 23.8869 499661.1006 6.5131 6.5673
ENERGY: 43000 1638.3785 2428.8080 3193.0830 0.0000 -175662.8363 20092.8290 111.1984 0.0000 30857.7626 -117340.7768 300.0209 -148198.5394 -117290.1901 301.1250 35.2685 47.7994 498194.2599 -3.3910 -3.7519
ENERGY: 44000 1700.3732 2372.8372 3226.7068 0.0000 -175736.7929 19892.2162 125.6400 0.0000 30900.3310 -117518.6886 300.4348 -148419.0196 -117473.0821 300.3333 -61.2307 16.8309 496768.0018 -7.6817 -7.4654
ENERGY: 45000 1665.6678 2452.5883 3196.4920 0.0000 -175886.7384 20005.8476 121.8242 0.0000 30926.9783 -117517.3401 300.6939 -148444.3185 -117473.0435 300.2577 -15.6033 54.6899 496703.4958 0.4107 0.9042
TCL: Setting parameter constraintScaling to 0.01953125
TCL: Running for 5000 steps
ETITLE: TS BOND ANGLE DIHED IMPRP ELECT VDW BOUNDARY MISC KINETIC TOTAL TEMP POTENTIAL TOTAL3 TEMPAVG PRESSURE GPRESSURE VOLUME PRESSAVG GPRESSAVG
ENERGY: 45000 1665.6678 2452.5883 3196.4920 0.0000 -175886.7384 20005.8476 60.9121 0.0000 30924.9234 -117580.3072 300.6739 -148505.2306 -117537.7613 300.6739 -33.5636 35.4732 496703.4958 -33.5636 35.4732
ENERGY: 46000 1658.1876 2372.8798 3229.9071 0.0000 -176011.2278 20075.3020 73.1367 0.0000 30678.7779 -117923.0367 298.2807 -148601.8145 -117878.9838 298.9880 -81.5338 13.5678 496226.5418 3.5346 3.3351
ENERGY: 47000 1650.8478 2439.7178 3246.6715 0.0000 -176104.0845 20287.7723 75.7777 0.0000 30859.3246 -117543.9729 300.0361 -148403.2974 -117503.5550 300.0418 23.1435 46.6354 496767.7929 -4.4118 -4.9891
ENERGY: 48000 1665.8773 2383.5504 3222.4625 0.0000 -175765.8031 19974.9411 80.3605 0.0000 31213.7537 -117224.8576 303.4821 -148438.6113 -117176.3144 300.6490 -114.5325 -7.6477 498127.2824 7.7304 7.7902
ENERGY: 49000 1616.1225 2414.7852 3260.8168 0.0000 -176020.6090 19988.9524 81.2400 0.0000 30845.4775 -117813.2147 299.9015 -148658.6921 -117764.7859 300.3512 -29.8144 -43.6740 496349.9293 -1.7515 -2.0386
ENERGY: 50000 1671.9218 2465.2278 3171.6231 0.0000 -175973.6352 20230.8556 89.9125 0.0000 30611.3514 -117732.7430 297.6251 -148344.0944 -117708.7017 299.7723 -87.2793 22.4796 496597.4242 4.6520 4.9121
TCL: Setting parameter constraintScaling to 0
TCL: Running for 5000 steps
ETITLE: TS BOND ANGLE DIHED IMPRP ELECT VDW BOUNDARY MISC KINETIC TOTAL TEMP POTENTIAL TOTAL3 TEMPAVG PRESSURE GPRESSURE VOLUME PRESSAVG GPRESSAVG
ENERGY: 50000 1671.9218 2465.2278 3171.6231 0.0000 -175973.6352 20230.8556 0.0000 0.0000 30609.3094 -117824.6975 297.6053 -148434.0069 -117784.8240 297.6053 -92.7884 14.9959 496597.4242 -92.7884 14.9959
ENERGY: 51000 1613.7649 2475.8132 3182.1167 0.0000 -175636.5069 19798.0052 0.0000 0.0000 31174.0260 -117392.7810 303.0959 -148566.8070 -117345.7272 300.6057 4.1167 -21.7376 495560.9479 -10.8159 -10.9283
ENERGY: 52000 1674.7190 2400.1858 3213.4126 0.0000 -175972.5283 20195.2825 0.0000 0.0000 30836.3668 -117652.5616 299.8129 -148488.9284 -117603.7483 300.5062 -38.8872 19.8358 497083.9638 -6.5692 -6.5467
ENERGY: 53000 1620.8754 2375.7063 3232.3662 0.0000 -175977.9741 20004.0327 0.0000 0.0000 30851.1458 -117893.8477 299.9566 -148744.9935 -117857.5219 298.9606 46.9270 60.7906 497072.7408 2.5808 3.2302
ENERGY: 54000 1629.3467 2352.5450 3232.5864 0.0000 -176137.8753 20182.6127 0.0000 0.0000 30848.9082 -117891.8763 299.9348 -148740.7846 -117840.8507 298.3992 -66.3283 31.6751 497376.9878 4.4116 4.3201
ENERGY: 55000 1606.7418 2368.8863 3230.8666 0.0000 -176110.7368 20056.1961 0.0000 0.0000 30997.3387 -117850.7073 301.3780 -148848.0460 -117813.1946 299.1595 -100.1658 -118.7719 499123.0885 4.3062 4.6918
