Info: SIMULATION PARAMETERS:
Info: TIMESTEP               1
Info: NUMBER OF STEPS        0
Info: STEPS PER CYCLE        10
Info: PERIODIC CELL BASIS 1  72.449 0 0
Info: PERIODIC CELL BASIS 2  0 93.247 0
Info: PERIODIC CELL BASIS 3  0 0 79.185
Info: PERIODIC CELL CENTER   -0.248 -0.156 -0.047
Info: WRAPPING WATERS AROUND PERIODIC BOUNDARIES ON OUTPUT.
Info: WRAPPING ALL CLUSTERS AROUND PERIODIC BOUNDARIES ON OUTPUT.
Info: FIRST LDB TIMESTEP     50
Info: LAST LDB TIMESTEP     -1
Info: HOM BACKGROUND SCALING 1
Info: PME BACKGROUND SCALING 1
Info: MIN ATOMS PER PATCH    40
Info: VELOCITY FILE          ../replicas/rep61/equilibration/eq1.vel
Info: CENTER OF MASS MOVING INITIALLY? NO
Info: DIELECTRIC             1
Info: EXCLUDE                SCALED ONE-FOUR
Info: 1-4 ELECTROSTATICS SCALED BY 0.833333
Info: MODIFIED 1-4 VDW PARAMETERS WILL BE USED
Info: DCD FILENAME           ../replicas/rep61/equilibration/eq2.dcd
Info: DCD FREQUENCY          5000
Info: DCD FIRST STEP         5000
Info: DCD FILE WILL CONTAIN UNIT CELL DATA
Info: XST FILENAME           ../replicas/rep61/equilibration/eq2.xst
Info: XST FREQUENCY          5000
Info: NO VELOCITY DCD OUTPUT
Info: NO FORCE DCD OUTPUT
Info: OUTPUT FILENAME        ../replicas/rep61/equilibration/eq2
Info: RESTART FILENAME       ../replicas/rep61/equilibration/eq2.restart
Info: RESTART FREQUENCY      5000
Info: BINARY RESTART FILES WILL BE USED
Info: SWITCHING ACTIVE
Info: SWITCHING ON           10
Info: SWITCHING OFF          12
Info: PAIRLIST DISTANCE      13.5
Info: PAIRLIST SHRINK RATE   0.01
Info: PAIRLIST GROW RATE     0.01
Info: PAIRLIST TRIGGER       0.3
Info: PAIRLISTS PER CYCLE    2
Info: PAIRLISTS ENABLED
Info: MARGIN                 0.48
Info: HYDROGEN GROUP CUTOFF  2.5
Info: PATCH DIMENSION        16.48
Info: ENERGY OUTPUT STEPS    500
Info: CROSSTERM ENERGY INCLUDED IN DIHEDRAL
Info: TIMING OUTPUT STEPS    5000
Info: PRESSURE OUTPUT STEPS  500
Info: HARMONIC CONSTRAINTS ACTIVE
Info: HARMONIC CONS EXP      2
Info: HARMONIC CONS SCALING  10
Info: LANGEVIN DYNAMICS ACTIVE
Info: LANGEVIN TEMPERATURE   300
Info: LANGEVIN USING BBK INTEGRATOR
Info: LANGEVIN DAMPING COEFFICIENT IS 5 INVERSE PS
Info: LANGEVIN DYNAMICS NOT APPLIED TO HYDROGENS
Info: BERENDSEN PRESSURE COUPLING ACTIVE
Info:     TARGET PRESSURE IS 1 BAR
Info:     COMPRESSIBILITY ESTIMATE IS 4.57e-05 BAR^(-1)
Info:     RELAXATION TIME IS 100 FS
Info:     APPLIED EVERY 2 STEPS
Info:     PRESSURE CONTROL IS GROUP-BASED
Info:       CELL FLUCTUATION IS ISOTROPIC
Info: PARTICLE MESH EWALD (PME) ACTIVE
Info: PME TOLERANCE               1e-06
Info: PME EWALD COEFFICIENT       0.257952
Info: PME INTERPOLATION ORDER     4
Info: PME GRID DIMENSIONS         80 96 80
Info: PME MAXIMUM GRID SPACING    1
Info: FULL ELECTROSTATIC EVALUATION FREQUENCY      2
Info: USING VERLET I (r-RESPA) MTS SCHEME.
Info: C1 SPLITTING OF LONG RANGE ELECTROSTATICS
Info: PLACING ATOMS IN PATCHES BY HYDROGEN GROUPS
Info: RIGID BONDS TO HYDROGEN : WATER
Info:         ERROR TOLERANCE : 1e-05
Info:          MAX ITERATIONS : 100
Info: RIGID WATER USING SETTLE ALGORITHM
Info: RANDOM NUMBER SEED     1503703684
Info: USE HYDROGEN BONDS?    NO
Info: Using AMBER format force field!
Info: AMBER PARM FILE        ../build/complex.top
Info: COORDINATE PDB         ../replicas/rep61/equilibration/eq1.coor
Info: Exclusions in PARM file will be ignored!
Info: SCNB (VDW SCALING)     2
Info: USING ARITHMETIC MEAN TO COMBINE L-J SIGMA PARAMETERS
Info: SUMMARY OF PARAMETERS:
Info: 71 BONDS
Info: 145 ANGLES
Info: 76 DIHEDRAL
Info: 0 IMPROPER
Info: 0 CROSSTERM
Info: 0 VDW
Info: 190 VDW_PAIRS
Info: 0 NBTHOLE_PAIRS
Info: STRUCTURE SUMMARY:
Info: 49394 ATOMS
Info: 49448 BONDS
Info: 8698 ANGLES
Info: 18780 DIHEDRALS
Info: 0 IMPROPERS
Info: 0 CROSSTERMS
Info: 0 EXCLUSIONS
Info: 2336 CONSTRAINTS
Info: 44667 RIGID BONDS
Info: 103515 DEGREES OF FREEDOM
Info: 17225 HYDROGEN GROUPS
Info: 4 ATOMS IN LARGEST HYDROGEN GROUP
Info: 17225 MIGRATION GROUPS
Info: 4 ATOMS IN LARGEST MIGRATION GROUP
Info: TOTAL MASS = 301478 amu
Info: TOTAL CHARGE = 1.00115e-05 e
Info: MASS DENSITY = 0.935846 g/cm^3
Info: ATOM DENSITY = 0.0923345 atoms/A^3
Info: ADDED 70656 IMPLICIT EXCLUSIONS
Info: NONBONDED TABLE R-SQUARED SPACING: 0.0625
Info: NONBONDED TABLE SIZE: 769 POINTS
Info: REMOVING COM VELOCITY -0.0191795 0.00260756 0.0210066
TCL: Running for 5000 steps
ETITLE: TS BOND ANGLE DIHED IMPRP ELECT VDW BOUNDARY MISC KINETIC TOTAL TEMP POTENTIAL TOTAL3 TEMPAVG PRESSURE GPRESSURE VOLUME PRESSAVG GPRESSAVG
ENERGY: 0 412.7514 1233.8701 2911.8897 0.0000 -212793.1341 29577.2184 0.0000 0.0000 10061.3079 -168596.0965 97.8231 -178657.4044 -168586.3202 97.8231 -2362.8482 -2463.0574 534946.2959 -2362.8482 -2463.0574
ENERGY: 1000 1251.2385 1982.2199 3106.4982 0.0000 -193867.2553 26546.9051 773.1491 0.0000 24083.5463 -136123.6981 234.1572 -160207.2444 -136092.2873 218.0080 -14.0845 -0.4499 523502.8367 -11.3714 -11.0030
ENERGY: 2000 1501.9310 2152.4024 3122.2600 0.0000 -184362.8829 23317.3734 798.5665 0.0000 27811.1577 -125659.1920 270.3997 -153470.3497 -125631.8570 264.0252 -59.8291 -28.5915 516724.6614 -17.3787 -17.0157
ENERGY: 3000 1551.5253 2200.7975 3127.8860 0.0000 -179669.7740 21958.4362 820.0853 0.0000 29585.2288 -120425.8149 287.6484 -150011.0437 -120384.9462 284.1360 -32.7337 -1.9437 510535.4367 -32.4453 -31.9983
ENERGY: 4000 1551.1689 2265.7259 3152.0168 0.0000 -177310.8378 21088.4615 773.8050 0.0000 30353.9224 -118125.7373 295.1222 -148479.6598 -118079.3420 292.9379 -76.4235 -16.5811 506873.4784 -33.3950 -33.5301
ENERGY: 5000 1568.9007 2292.9555 3132.3744 0.0000 -176413.8912 20424.6584 826.6812 0.0000 30465.0495 -117703.2715 296.2027 -148168.3211 -117656.4876 297.0174 -185.4680 -34.7232 504634.6871 -8.4349 -7.9666
TCL: Setting parameter constraintScaling to 5.0
TCL: Running for 5000 steps
ETITLE: TS BOND ANGLE DIHED IMPRP ELECT VDW BOUNDARY MISC KINETIC TOTAL TEMP POTENTIAL TOTAL3 TEMPAVG PRESSURE GPRESSURE VOLUME PRESSAVG GPRESSAVG
ENERGY: 5000 1568.9007 2292.9555 3132.3744 0.0000 -176413.8912 20424.6584 413.3406 0.0000 30463.0206 -118118.6410 296.1830 -148581.6617 -118073.4478 296.1830 -293.3016 -141.6877 504634.6871 -293.3016 -141.6877
ENERGY: 6000 1649.0771 2304.1030 3158.3436 0.0000 -175796.7853 20455.9017 619.4392 0.0000 30950.9354 -116658.9851 300.9268 -147609.9205 -116629.1758 298.2773 35.1922 39.7260 503652.4668 -8.5379 -7.6603
ENERGY: 7000 1587.2991 2340.2970 3157.8982 0.0000 -175546.1584 20157.7250 644.7619 0.0000 30764.0897 -116894.0876 299.1102 -147658.1773 -116847.3920 299.7804 -15.6191 35.2707 503865.4712 15.9477 16.0724
ENERGY: 8000 1594.2027 2354.1658 3148.8837 0.0000 -175926.2592 20334.3610 640.7221 0.0000 30951.5955 -116902.3283 300.9332 -147853.9239 -116855.6437 300.2612 -53.1459 60.6281 503171.2474 -12.1746 -12.4360
ENERGY: 9000 1586.4300 2232.4211 3134.5241 0.0000 -175730.2501 20077.8555 618.4996 0.0000 30725.2504 -117355.2694 298.7325 -148080.5197 -117306.1634 298.2724 -39.7163 -7.1001 501815.8511 1.2393 1.2582
ENERGY: 10000 1587.2395 2320.8062 3162.4817 0.0000 -176246.2261 20476.0347 631.0007 0.0000 30719.0344 -117349.6288 298.6721 -148068.6632 -117308.3220 299.0630 -48.7592 -18.7282 501402.4895 1.2803 1.0851
TCL: Setting parameter constraintScaling to 2.5
TCL: Running for 5000 steps
ETITLE: TS BOND ANGLE DIHED IMPRP ELECT VDW BOUNDARY MISC KINETIC TOTAL TEMP POTENTIAL TOTAL3 TEMPAVG PRESSURE GPRESSURE VOLUME PRESSAVG GPRESSAVG
ENERGY: 10000 1587.2395 2320.8062 3162.4817 0.0000 -176246.2262 20476.0347 315.5004 0.0000 30717.0064 -117667.1572 298.6524 -148384.1636 -117625.4150 298.6524 -52.3529 -26.2135 501402.4895 -52.3529 -26.2135
ENERGY: 11000 1592.6064 2371.5364 3163.1338 0.0000 -175583.8359 20155.1026 491.7078 0.0000 30644.2676 -117165.4812 297.9452 -147809.7489 -117130.0768 299.0516 -56.1932 -28.4058 499175.0720 -6.5634 -6.5271
ENERGY: 12000 1661.7099 2331.5651 3175.2367 0.0000 -175776.3599 20226.3684 511.2897 0.0000 30982.5757 -116887.6144 301.2344 -147870.1901 -116842.2002 299.8669 -34.9638 -6.2836 501028.9845 17.1653 16.4799
ENERGY: 13000 1565.2587 2362.0093 3176.2748 0.0000 -175722.0684 20513.6321 515.2690 0.0000 30731.5049 -116858.1197 298.7933 -147589.6245 -116812.8714 300.5068 44.5891 37.7441 500471.6876 1.5793 1.5341
ENERGY: 14000 1583.6276 2358.2526 3188.6371 0.0000 -175404.7151 20076.9207 500.2741 0.0000 30811.1623 -116885.8407 299.5678 -147697.0030 -116837.6036 300.3195 -91.5889 -58.5982 498641.8836 -11.3255 -11.2189
ENERGY: 15000 1604.7742 2292.2846 3200.0569 0.0000 -175477.6578 19956.3633 496.0787 0.0000 30852.3331 -117075.7671 299.9681 -147928.1002 -117030.5463 300.0332 14.9306 53.1846 498258.4644 6.7200 6.7535
TCL: Setting parameter constraintScaling to 1.25
TCL: Running for 5000 steps
ETITLE: TS BOND ANGLE DIHED IMPRP ELECT VDW BOUNDARY MISC KINETIC TOTAL TEMP POTENTIAL TOTAL3 TEMPAVG PRESSURE GPRESSURE VOLUME PRESSAVG GPRESSAVG
ENERGY: 15000 1604.7742 2292.2846 3200.0569 0.0000 -175477.6578 19956.3633 248.0393 0.0000 30850.2624 -117325.8772 299.9480 -148176.1395 -117283.9811 299.9480 -46.2821 -8.0693 498258.4644 -46.2821 -8.0693
ENERGY: 16000 1602.9034 2345.0436 3188.8243 0.0000 -175511.4062 20181.4218 388.1391 0.0000 30743.7551 -117061.3190 298.9125 -147805.0740 -117011.7457 299.9193 17.7813 61.6787 499187.1379 0.7420 0.8153
ENERGY: 17000 1559.7352 2357.2612 3163.7354 0.0000 -175525.8556 20010.6904 405.2576 0.0000 30983.8802 -117045.2956 301.2471 -148029.1758 -116997.4396 300.6250 -9.4846 34.5202 498107.6065 -3.8813 -4.1235
ENERGY: 18000 1633.6106 2347.0225 3188.7492 0.0000 -175824.0684 20129.3725 395.0865 0.0000 30869.2231 -117261.0040 300.1323 -148130.2272 -117208.6739 299.6048 23.3555 2.8076 498552.5480 6.9292 6.9202
ENERGY: 19000 1643.5732 2372.1428 3174.1876 0.0000 -175952.9773 20203.3740 390.5086 0.0000 30650.0074 -117519.1837 298.0010 -148169.1911 -117468.2293 299.8152 108.8971 135.5162 497771.3451 -1.1715 -1.5193
ENERGY: 20000 1650.6988 2359.9593 3183.8594 0.0000 -176058.8568 20157.0259 385.8867 0.0000 30843.6720 -117477.7548 299.8839 -148321.4268 -117428.4384 298.9202 -35.5407 -9.8741 498880.9037 6.6495 6.4319
TCL: Setting parameter constraintScaling to 0.625
TCL: Running for 5000 steps
ETITLE: TS BOND ANGLE DIHED IMPRP ELECT VDW BOUNDARY MISC KINETIC TOTAL TEMP POTENTIAL TOTAL3 TEMPAVG PRESSURE GPRESSURE VOLUME PRESSAVG GPRESSAVG
ENERGY: 20000 1650.6988 2359.9593 3183.8594 0.0000 -176058.8568 20157.0259 192.9433 0.0000 30841.6327 -117672.7374 299.8641 -148514.3701 -117630.4682 299.8641 -93.8348 -71.3741 498880.9037 -93.8348 -71.3741
ENERGY: 21000 1651.6511 2431.9963 3204.4800 0.0000 -175541.7494 19850.5282 304.9529 0.0000 30845.4304 -117252.7105 299.9010 -148098.1409 -117209.6389 299.9612 -24.3020 -10.9788 496792.9592 -1.3071 -1.7834
ENERGY: 22000 1620.2367 2387.1056 3180.7569 0.0000 -175482.5328 19975.7096 308.9073 0.0000 30999.9425 -117009.8741 301.4033 -148009.8166 -116960.8148 301.1202 31.3420 78.3105 498332.1015 0.1230 -0.5599
ENERGY: 23000 1611.1743 2293.5345 3201.2680 0.0000 -175882.3950 20129.4438 290.5004 0.0000 30924.1179 -117432.3561 300.6661 -148356.4740 -117388.7616 300.3189 -183.6719 -74.2415 497469.5627 1.4521 1.1183
ENERGY: 24000 1609.5240 2452.2730 3197.9014 0.0000 -175643.9034 19970.5941 308.1690 0.0000 31029.1369 -117076.3051 301.6871 -148105.4420 -117030.8780 299.9217 -77.7492 26.2770 498427.4499 8.5499 8.8802
ENERGY: 25000 1639.0685 2384.7214 3174.2057 0.0000 -176192.6005 20078.5705 320.8554 0.0000 30513.4813 -118081.6976 296.6736 -148595.1789 -118038.3627 298.0903 12.4790 -20.4737 496427.8701 -13.5284 -14.0997
TCL: Setting parameter constraintScaling to 0.3125
TCL: Running for 5000 steps
ETITLE: TS BOND ANGLE DIHED IMPRP ELECT VDW BOUNDARY MISC KINETIC TOTAL TEMP POTENTIAL TOTAL3 TEMPAVG PRESSURE GPRESSURE VOLUME PRESSAVG GPRESSAVG
ENERGY: 25000 1639.0685 2384.7214 3174.2057 0.0000 -176192.6005 20078.5705 160.4277 0.0000 30511.4256 -118244.1810 296.6536 -148755.6067 -118201.6837 296.6536 -28.6479 -60.3971 496427.8701 -28.6479 -60.3971
ENERGY: 26000 1604.5167 2427.2122 3209.0721 0.0000 -175620.5510 19874.1971 243.3766 0.0000 30614.1066 -117648.0698 297.6519 -148262.1763 -117602.4940 299.6675 -146.5409 -82.2605 496483.2457 -0.3631 -0.4526
ENERGY: 27000 1659.3376 2458.9720 3211.4335 0.0000 -176271.4080 20192.7365 251.5108 0.0000 30592.2143 -117905.2032 297.4391 -148497.4175 -117862.5132 298.5285 -13.7495 -15.7160 496498.8683 -2.0979 -2.2946
ENERGY: 28000 1606.8439 2339.0526 3188.8797 0.0000 -175645.4353 19851.6625 233.7805 0.0000 30784.8389 -117640.3773 299.3119 -148425.2161 -117602.7984 299.3959 166.5144 66.5934 496655.6770 0.8463 0.6501
ENERGY: 29000 1636.9324 2473.7246 3215.6935 0.0000 -175681.2823 20070.8821 234.9349 0.0000 30993.2355 -117055.8792 301.3381 -148049.1148 -117017.8103 300.0267 -85.9833 -27.9867 498332.6109 7.2595 7.4510
ENERGY: 30000 1588.2113 2429.0314 3195.8573 0.0000 -175702.0707 20141.8122 251.8061 0.0000 30777.6053 -117317.7471 299.2416 -148095.3524 -117274.9378 299.8051 -11.8917 17.6421 498352.7647 -2.4684 -2.0139
TCL: Setting parameter constraintScaling to 0.15625
TCL: Running for 5000 steps
ETITLE: TS BOND ANGLE DIHED IMPRP ELECT VDW BOUNDARY MISC KINETIC TOTAL TEMP POTENTIAL TOTAL3 TEMPAVG PRESSURE GPRESSURE VOLUME PRESSAVG GPRESSAVG
ENERGY: 30000 1588.2113 2429.0314 3195.8573 0.0000 -175702.0707 20141.8122 125.9030 0.0000 30775.5559 -117445.6995 299.2216 -148221.2554 -117405.2304 299.2216 -59.3714 -23.0017 498352.7647 -59.3714 -23.0017
ENERGY: 31000 1639.4844 2403.1024 3218.6728 0.0000 -176001.6977 20222.2136 185.2182 0.0000 30914.8534 -117418.1530 300.5760 -148333.0064 -117369.7238 299.5130 -71.0033 -17.4999 498815.8730 2.8169 2.4337
ENERGY: 32000 1624.6978 2357.9657 3206.7239 0.0000 -175539.1931 19893.3124 173.8639 0.0000 30843.8272 -117438.8023 299.8854 -148282.6295 -117391.3760 299.4885 103.7413 96.9146 496873.7119 -11.1230 -10.8923
ENERGY: 33000 1692.8933 2443.9637 3208.3139 0.0000 -175495.5433 19822.9702 207.4664 0.0000 30804.4796 -117315.4563 299.5029 -148119.9359 -117275.0122 299.8545 -103.3741 24.9508 497438.2255 5.7037 5.3469
ENERGY: 34000 1675.6486 2399.9420 3218.7144 0.0000 -175365.7827 19820.0652 190.6379 0.0000 30873.0225 -117187.7521 300.1693 -148060.7746 -117152.5433 299.1935 -28.0918 -56.9444 497341.2347 -3.4874 -3.5421
ENERGY: 35000 1583.9439 2435.9803 3248.9406 0.0000 -175761.2062 20313.7656 208.5773 0.0000 31010.6821 -116959.3164 301.5077 -147969.9985 -116910.9578 301.2035 -37.9189 0.8273 498830.1704 7.7833 7.5433
TCL: Setting parameter constraintScaling to 0.078125
TCL: Running for 5000 steps
ETITLE: TS BOND ANGLE DIHED IMPRP ELECT VDW BOUNDARY MISC KINETIC TOTAL TEMP POTENTIAL TOTAL3 TEMPAVG PRESSURE GPRESSURE VOLUME PRESSAVG GPRESSAVG
ENERGY: 35000 1583.9439 2435.9803 3248.9406 0.0000 -175761.2062 20313.7656 104.2887 0.0000 31008.6438 -117065.6433 301.4879 -148074.2872 -117023.7730 301.4879 -52.4642 -22.8063 498830.1704 -52.4642 -22.8063
ENERGY: 36000 1642.7474 2408.0737 3220.4572 0.0000 -175824.3920 20125.8310 153.8963 0.0000 31066.5904 -117206.7961 302.0513 -148273.3865 -117164.9577 300.4841 0.9885 5.9182 498152.7633 -0.6987 -0.2480
ENERGY: 37000 1657.2449 2467.9693 3183.5453 0.0000 -175556.6409 20006.9949 166.1423 0.0000 30889.9721 -117184.7722 300.3341 -148074.7443 -117131.9163 300.2061 28.1301 3.5636 498288.7193 2.8360 2.8853
ENERGY: 38000 1699.8971 2433.5581 3189.5458 0.0000 -175919.8530 20247.6102 157.0192 0.0000 30555.8293 -117636.3933 297.0853 -148192.2227 -117594.8138 299.4667 -149.3855 -64.9521 498172.2219 4.2083 3.9662
ENERGY: 39000 1649.4837 2476.9513 3199.8869 0.0000 -176490.0242 20426.8898 171.9999 0.0000 30620.3514 -117944.4613 297.7126 -148564.8127 -117900.8055 298.9641 141.2444 64.6587 496316.0209 -9.2890 -8.7137
ENERGY: 40000 1636.7527 2423.8472 3226.3565 0.0000 -175954.6959 20035.4774 167.9777 0.0000 30499.6000 -117964.6844 296.5386 -148464.2844 -117937.7838 298.0481 59.7398 62.7896 496001.4629 -2.0610 -1.9165
TCL: Setting parameter constraintScaling to 0.0390625
TCL: Running for 5000 steps
ETITLE: TS BOND ANGLE DIHED IMPRP ELECT VDW BOUNDARY MISC KINETIC TOTAL TEMP POTENTIAL TOTAL3 TEMPAVG PRESSURE GPRESSURE VOLUME PRESSAVG GPRESSAVG
ENERGY: 40000 1636.7527 2423.8472 3226.3565 0.0000 -175954.6959 20035.4774 83.9889 0.0000 30497.5329 -118050.7404 296.5185 -148548.2733 -118008.2186 296.5185 57.3189 54.5420 496001.4629 57.3189 54.5420
ENERGY: 41000 1636.2856 2403.8136 3201.1955 0.0000 -175915.8550 20227.8240 105.1429 0.0000 30767.1134 -117574.4800 299.1396 -148341.5934 -117533.9209 299.0021 -50.1812 43.7987 498191.5995 11.0417 10.8283
ENERGY: 42000 1642.8181 2366.4744 3245.9503 0.0000 -175899.3333 20013.9455 122.0944 0.0000 30799.8111 -117708.2395 299.4575 -148508.0506 -117658.9152 298.8061 -115.4439 -98.5619 496842.7833 5.5334 5.5094
ENERGY: 43000 1611.6188 2415.4376 3223.4626 0.0000 -175662.6408 20053.4912 120.6351 0.0000 30600.4427 -117637.5527 297.5191 -148237.9954 -117597.1694 299.1476 -87.1636 71.0470 497602.7467 1.0569 0.5695
ENERGY: 44000 1679.3138 2354.7805 3197.9127 0.0000 -176377.2966 20237.7071 116.8803 0.0000 30830.2270 -117960.4752 299.7532 -148790.7022 -117911.7636 298.6309 -90.1462 -65.2225 497853.0395 1.3801 1.6503
ENERGY: 45000 1608.5513 2378.2738 3174.7414 0.0000 -176065.4150 20004.6030 130.8697 0.0000 30742.8768 -118025.4990 298.9039 -148768.3758 -117988.6624 298.4118 -183.6226 -84.5469 495386.5843 2.0253 2.1559
TCL: Setting parameter constraintScaling to 0.01953125
TCL: Running for 5000 steps
ETITLE: TS BOND ANGLE DIHED IMPRP ELECT VDW BOUNDARY MISC KINETIC TOTAL TEMP POTENTIAL TOTAL3 TEMPAVG PRESSURE GPRESSURE VOLUME PRESSAVG GPRESSAVG
ENERGY: 45000 1608.5513 2378.2738 3174.7414 0.0000 -176065.4150 20004.6030 65.4349 0.0000 30740.8195 -118092.9912 298.8839 -148833.8106 -118046.6664 298.8839 -189.4518 -91.0549 495386.5843 -189.4518 -91.0549
ENERGY: 46000 1613.2326 2423.7306 3211.2403 0.0000 -175810.0041 19857.9264 73.8611 0.0000 30924.8855 -117705.1275 300.6735 -148630.0130 -117654.1750 299.7387 -187.1149 -102.8506 496752.7891 11.3820 12.0010
ENERGY: 47000 1649.1231 2359.5013 3200.6043 0.0000 -175922.1291 20153.7512 78.1257 0.0000 30758.9631 -117722.0606 299.0603 -148481.0236 -117683.2309 299.4866 -6.7728 -0.9828 497474.2469 17.4581 17.1512
ENERGY: 48000 1611.1492 2442.5018 3218.4277 0.0000 -175790.8284 19858.6029 87.9548 0.0000 30634.3027 -117937.8892 297.8483 -148572.1920 -117893.6218 298.8566 -110.0913 -111.2131 496577.8774 1.0516 1.0381
ENERGY: 49000 1643.7136 2421.7318 3231.9397 0.0000 -175979.8987 20069.3755 90.4276 0.0000 30726.6517 -117796.0588 298.7462 -148522.7104 -117750.3981 299.3220 4.9066 -34.0004 495821.4572 -12.9102 -12.3341
ENERGY: 50000 1628.4702 2421.5276 3197.8052 0.0000 -175409.0991 19907.2063 89.5779 0.0000 30746.2023 -117418.3095 298.9362 -148164.5118 -117368.0052 299.9407 -69.3118 -114.4751 498827.0783 15.8084 15.5005
TCL: Setting parameter constraintScaling to 0
TCL: Running for 5000 steps
ETITLE: TS BOND ANGLE DIHED IMPRP ELECT VDW BOUNDARY MISC KINETIC TOTAL TEMP POTENTIAL TOTAL3 TEMPAVG PRESSURE GPRESSURE VOLUME PRESSAVG GPRESSAVG
ENERGY: 50000 1628.4702 2421.5276 3197.8052 0.0000 -175409.0991 19907.2063 0.0000 0.0000 30744.1837 -117509.9060 298.9166 -148254.0898 -117468.2778 298.9166 -96.8280 -132.6059 498827.0783 -96.8280 -132.6059
ENERGY: 51000 1663.3037 2402.2303 3164.6950 0.0000 -175700.4990 20012.0355 0.0000 0.0000 30777.8828 -117680.3517 299.2443 -148458.2345 -117634.4057 300.6020 -48.4123 -29.6139 497712.9043 0.9534 1.1070
ENERGY: 52000 1628.7113 2452.0676 3232.2049 0.0000 -176112.0664 20220.1190 0.0000 0.0000 31150.4850 -117428.4785 302.8670 -148578.9635 -117379.2406 300.5809 25.4464 57.8288 498455.2551 14.1068 14.1181
ENERGY: 53000 1584.2012 2414.7637 3214.1868 0.0000 -175779.8474 20029.1350 0.0000 0.0000 30752.1114 -117785.4493 298.9937 -148537.5607 -117744.2232 298.9816 -76.1424 -29.7547 496095.0474 7.8786 8.1279
ENERGY: 54000 1582.6721 2424.8862 3205.1021 0.0000 -175752.9337 19939.2062 0.0000 0.0000 30885.1187 -117715.9484 300.2869 -148601.0671 -117666.1371 300.1609 -52.3266 -26.7743 497219.0488 0.2369 -0.1766
ENERGY: 55000 1672.2371 2394.2938 3204.9958 0.0000 -175442.2497 19912.1078 0.0000 0.0000 30729.5651 -117529.0501 298.7745 -148258.6152 -117481.9654 299.6255 93.7953 50.7502 497789.7334 4.3431 4.1266
