Info: SIMULATION PARAMETERS:
Info: TIMESTEP               1
Info: NUMBER OF STEPS        0
Info: STEPS PER CYCLE        10
Info: PERIODIC CELL BASIS 1  72.449 0 0
Info: PERIODIC CELL BASIS 2  0 93.247 0
Info: PERIODIC CELL BASIS 3  0 0 79.185
Info: PERIODIC CELL CENTER   -0.248 -0.156 -0.047
Info: WRAPPING WATERS AROUND PERIODIC BOUNDARIES ON OUTPUT.
Info: WRAPPING ALL CLUSTERS AROUND PERIODIC BOUNDARIES ON OUTPUT.
Info: FIRST LDB TIMESTEP     50
Info: LAST LDB TIMESTEP     -1
Info: HOM BACKGROUND SCALING 1
Info: PME BACKGROUND SCALING 1
Info: MIN ATOMS PER PATCH    40
Info: VELOCITY FILE          ../replicas/rep80/equilibration/eq1.vel
Info: CENTER OF MASS MOVING INITIALLY? NO
Info: DIELECTRIC             1
Info: EXCLUDE                SCALED ONE-FOUR
Info: 1-4 ELECTROSTATICS SCALED BY 0.833333
Info: MODIFIED 1-4 VDW PARAMETERS WILL BE USED
Info: DCD FILENAME           ../replicas/rep80/equilibration/eq2.dcd
Info: DCD FREQUENCY          5000
Info: DCD FIRST STEP         5000
Info: DCD FILE WILL CONTAIN UNIT CELL DATA
Info: XST FILENAME           ../replicas/rep80/equilibration/eq2.xst
Info: XST FREQUENCY          5000
Info: NO VELOCITY DCD OUTPUT
Info: NO FORCE DCD OUTPUT
Info: OUTPUT FILENAME        ../replicas/rep80/equilibration/eq2
Info: RESTART FILENAME       ../replicas/rep80/equilibration/eq2.restart
Info: RESTART FREQUENCY      5000
Info: BINARY RESTART FILES WILL BE USED
Info: SWITCHING ACTIVE
Info: SWITCHING ON           10
Info: SWITCHING OFF          12
Info: PAIRLIST DISTANCE      13.5
Info: PAIRLIST SHRINK RATE   0.01
Info: PAIRLIST GROW RATE     0.01
Info: PAIRLIST TRIGGER       0.3
Info: PAIRLISTS PER CYCLE    2
Info: PAIRLISTS ENABLED
Info: MARGIN                 0.48
Info: HYDROGEN GROUP CUTOFF  2.5
Info: PATCH DIMENSION        16.48
Info: ENERGY OUTPUT STEPS    500
Info: CROSSTERM ENERGY INCLUDED IN DIHEDRAL
Info: TIMING OUTPUT STEPS    5000
Info: PRESSURE OUTPUT STEPS  500
Info: HARMONIC CONSTRAINTS ACTIVE
Info: HARMONIC CONS EXP      2
Info: HARMONIC CONS SCALING  10
Info: LANGEVIN DYNAMICS ACTIVE
Info: LANGEVIN TEMPERATURE   300
Info: LANGEVIN USING BBK INTEGRATOR
Info: LANGEVIN DAMPING COEFFICIENT IS 5 INVERSE PS
Info: LANGEVIN DYNAMICS NOT APPLIED TO HYDROGENS
Info: BERENDSEN PRESSURE COUPLING ACTIVE
Info:     TARGET PRESSURE IS 1 BAR
Info:     COMPRESSIBILITY ESTIMATE IS 4.57e-05 BAR^(-1)
Info:     RELAXATION TIME IS 100 FS
Info:     APPLIED EVERY 2 STEPS
Info:     PRESSURE CONTROL IS GROUP-BASED
Info:       CELL FLUCTUATION IS ISOTROPIC
Info: PARTICLE MESH EWALD (PME) ACTIVE
Info: PME TOLERANCE               1e-06
Info: PME EWALD COEFFICIENT       0.257952
Info: PME INTERPOLATION ORDER     4
Info: PME GRID DIMENSIONS         80 96 80
Info: PME MAXIMUM GRID SPACING    1
Info: FULL ELECTROSTATIC EVALUATION FREQUENCY      2
Info: USING VERLET I (r-RESPA) MTS SCHEME.
Info: C1 SPLITTING OF LONG RANGE ELECTROSTATICS
Info: PLACING ATOMS IN PATCHES BY HYDROGEN GROUPS
Info: RIGID BONDS TO HYDROGEN : WATER
Info:         ERROR TOLERANCE : 1e-05
Info:          MAX ITERATIONS : 100
Info: RIGID WATER USING SETTLE ALGORITHM
Info: RANDOM NUMBER SEED     1503701439
Info: USE HYDROGEN BONDS?    NO
Info: Using AMBER format force field!
Info: AMBER PARM FILE        ../build/complex.top
Info: COORDINATE PDB         ../replicas/rep80/equilibration/eq1.coor
Info: Exclusions in PARM file will be ignored!
Info: SCNB (VDW SCALING)     2
Info: USING ARITHMETIC MEAN TO COMBINE L-J SIGMA PARAMETERS
Info: SUMMARY OF PARAMETERS:
Info: 71 BONDS
Info: 145 ANGLES
Info: 76 DIHEDRAL
Info: 0 IMPROPER
Info: 0 CROSSTERM
Info: 0 VDW
Info: 190 VDW_PAIRS
Info: 0 NBTHOLE_PAIRS
Info: STRUCTURE SUMMARY:
Info: 49394 ATOMS
Info: 49448 BONDS
Info: 8698 ANGLES
Info: 18780 DIHEDRALS
Info: 0 IMPROPERS
Info: 0 CROSSTERMS
Info: 0 EXCLUSIONS
Info: 2336 CONSTRAINTS
Info: 44667 RIGID BONDS
Info: 103515 DEGREES OF FREEDOM
Info: 17225 HYDROGEN GROUPS
Info: 4 ATOMS IN LARGEST HYDROGEN GROUP
Info: 17225 MIGRATION GROUPS
Info: 4 ATOMS IN LARGEST MIGRATION GROUP
Info: TOTAL MASS = 301478 amu
Info: TOTAL CHARGE = 1.00115e-05 e
Info: MASS DENSITY = 0.935846 g/cm^3
Info: ATOM DENSITY = 0.0923345 atoms/A^3
Info: ADDED 70656 IMPLICIT EXCLUSIONS
Info: NONBONDED TABLE R-SQUARED SPACING: 0.0625
Info: NONBONDED TABLE SIZE: 769 POINTS
Info: REMOVING COM VELOCITY 0.00260691 -0.00914999 0.00540682
TCL: Running for 5000 steps
ETITLE: TS BOND ANGLE DIHED IMPRP ELECT VDW BOUNDARY MISC KINETIC TOTAL TEMP POTENTIAL TOTAL3 TEMPAVG PRESSURE GPRESSURE VOLUME PRESSAVG GPRESSAVG
ENERGY: 0 390.1171 1211.9836 2906.3096 0.0000 -212606.9506 29606.7191 0.0000 0.0000 10035.9765 -168455.8447 97.5768 -178491.8212 -168446.2232 97.5768 -2293.5082 -2395.7179 534946.2959 -2293.5082 -2395.7179
ENERGY: 1000 1240.1488 1976.1258 3097.3637 0.0000 -193108.7702 26138.6897 787.6687 0.0000 24161.4619 -135707.3116 234.9148 -159868.7735 -135677.4521 218.9064 6.8297 -12.9068 521373.0574 -14.9511 -14.6787
ENERGY: 2000 1445.3998 2189.1970 3125.7888 0.0000 -184395.5108 23408.0216 801.3981 0.0000 27927.6022 -125498.1034 271.5318 -153425.7055 -125456.3268 265.0116 60.5407 -16.3723 513275.3005 -32.8469 -32.6845
ENERGY: 3000 1524.4335 2202.0802 3120.7351 0.0000 -178978.4964 21335.8283 826.0836 0.0000 29554.0721 -120415.2636 287.3455 -149969.3357 -120373.5084 284.4332 16.1828 14.3636 510057.7636 -3.9953 -4.6157
ENERGY: 4000 1561.4514 2286.8288 3144.2435 0.0000 -176959.0668 20938.6740 800.1362 0.0000 30024.0092 -118203.7236 291.9146 -148227.7328 -118165.5349 292.9325 -17.0324 -13.7098 507410.3952 -2.0908 -2.1827
ENERGY: 5000 1524.0164 2246.4336 3134.5584 0.0000 -175660.7958 20308.6599 830.9486 0.0000 31061.4336 -116554.7451 302.0011 -147616.1787 -116507.2213 298.3754 -14.2496 -0.3428 506320.4256 7.6778 8.0921
TCL: Setting parameter constraintScaling to 5.0
TCL: Running for 5000 steps
ETITLE: TS BOND ANGLE DIHED IMPRP ELECT VDW BOUNDARY MISC KINETIC TOTAL TEMP POTENTIAL TOTAL3 TEMPAVG PRESSURE GPRESSURE VOLUME PRESSAVG GPRESSAVG
ENERGY: 5000 1524.0164 2246.4336 3134.5584 0.0000 -175660.7958 20308.6599 415.4743 0.0000 31059.4020 -116972.2511 301.9814 -148031.6530 -116928.7271 301.9814 -42.4914 -34.1761 506320.4256 -42.4914 -34.1761
ENERGY: 6000 1681.1012 2276.7134 3172.3951 0.0000 -175312.7594 20186.5693 640.6392 0.0000 30790.5570 -116564.7843 299.3675 -147355.3413 -116524.6620 299.4808 30.8868 8.0090 504621.0381 -4.8748 -4.9434
ENERGY: 7000 1665.1381 2303.8740 3144.4919 0.0000 -175211.1232 19992.5538 663.1841 0.0000 30802.7229 -116639.1584 299.4858 -147441.8813 -116600.8381 300.3539 -11.7785 21.8735 502170.3824 -13.3476 -13.0284
ENERGY: 8000 1600.3566 2313.0083 3170.6196 0.0000 -175810.7787 20269.4318 650.0606 0.0000 30807.4996 -116999.8021 299.5322 -147807.3018 -116951.3742 298.3953 -25.9582 -19.2899 501278.2475 -11.0646 -11.1287
ENERGY: 9000 1608.3738 2348.0588 3165.8635 0.0000 -175233.1092 19914.7994 651.1968 0.0000 30747.4963 -116797.3208 298.9488 -147544.8170 -116747.8571 299.6147 -31.0874 -14.8508 502880.8732 3.6346 3.8765
ENERGY: 10000 1571.2535 2287.6101 3153.4589 0.0000 -175510.5887 19972.7171 639.0103 0.0000 30866.8888 -117019.6500 300.1096 -147886.5388 -116973.8113 299.9994 -35.8785 -45.8707 501211.2411 -6.6764 -6.3685
TCL: Setting parameter constraintScaling to 2.5
TCL: Running for 5000 steps
ETITLE: TS BOND ANGLE DIHED IMPRP ELECT VDW BOUNDARY MISC KINETIC TOTAL TEMP POTENTIAL TOTAL3 TEMPAVG PRESSURE GPRESSURE VOLUME PRESSAVG GPRESSAVG
ENERGY: 10000 1571.2535 2287.6101 3153.4589 0.0000 -175510.5887 19972.7171 319.5051 0.0000 30864.8473 -117341.1967 300.0898 -148206.0439 -117296.0791 300.0898 -157.1902 -166.3467 501211.2411 -157.1902 -166.3467
ENERGY: 11000 1666.6646 2349.7391 3171.6424 0.0000 -175441.7750 20102.8179 517.7900 0.0000 30709.6453 -116923.4758 298.5808 -147633.1211 -116887.9573 299.5838 -58.3469 -15.4007 499941.9465 -8.9678 -8.8886
ENERGY: 12000 1630.2779 2281.4137 3182.6163 0.0000 -175825.0636 20251.7857 518.5145 0.0000 30734.5827 -117225.8728 298.8233 -147960.4555 -117180.5332 299.5160 -91.0388 -47.5731 500938.2003 3.3537 3.1365
ENERGY: 13000 1601.6099 2410.8755 3158.0928 0.0000 -175499.2745 20009.1434 541.4604 0.0000 30805.7543 -116972.3382 299.5153 -147778.0925 -116922.9387 299.7992 -86.1935 -24.1748 499946.7613 8.6553 9.2952
ENERGY: 14000 1670.7376 2336.4421 3173.1253 0.0000 -175840.3280 20114.3677 522.3610 0.0000 30520.9974 -117502.2969 296.7466 -148023.2943 -117457.4764 298.7076 110.7092 40.5980 499891.0499 -5.5561 -5.9581
ENERGY: 15000 1603.1025 2375.0436 3159.3500 0.0000 -175519.5245 19949.7558 502.7620 0.0000 30805.8983 -117123.6122 299.5167 -147929.5105 -117078.8002 299.7798 -41.6132 -11.3005 500708.5699 13.2836 12.7278
TCL: Setting parameter constraintScaling to 1.25
TCL: Running for 5000 steps
ETITLE: TS BOND ANGLE DIHED IMPRP ELECT VDW BOUNDARY MISC KINETIC TOTAL TEMP POTENTIAL TOTAL3 TEMPAVG PRESSURE GPRESSURE VOLUME PRESSAVG GPRESSAVG
ENERGY: 15000 1603.1025 2375.0436 3159.3500 0.0000 -175519.5245 19949.7558 251.3810 0.0000 30803.8488 -117377.0427 299.4967 -148180.8915 -117337.2486 299.4967 -136.4258 -99.9817 500708.5699 -136.4258 -99.9817
ENERGY: 16000 1610.6247 2416.5819 3163.0219 0.0000 -175014.7895 19887.9986 414.8096 0.0000 30870.9182 -116650.8345 300.1488 -147521.7527 -116618.5801 299.9862 -2.2948 54.7469 500603.5581 8.1657 8.1743
ENERGY: 17000 1607.1427 2393.6385 3189.0635 0.0000 -175472.8377 20001.9512 399.1501 0.0000 30800.7001 -117081.1917 299.4661 -147881.8918 -117034.0474 300.0695 9.4296 17.5777 501596.6995 14.7647 15.0621
ENERGY: 18000 1600.1494 2339.5111 3189.2297 0.0000 -175597.6711 19774.8584 396.0490 0.0000 30649.6797 -117648.1937 297.9978 -148297.8734 -117613.1057 298.8087 19.9035 60.5595 501013.9032 -7.8995 -7.9316
ENERGY: 19000 1661.0791 2372.6948 3194.1015 0.0000 -175033.3918 19651.9031 416.8553 0.0000 30598.4711 -117138.2868 297.4999 -147736.7579 -117097.7135 299.4065 -123.7838 35.1977 500491.5202 1.1767 0.9766
ENERGY: 20000 1622.6392 2398.3638 3208.6399 0.0000 -175195.8324 19598.1218 404.3785 0.0000 31013.0069 -116950.6823 301.5303 -147963.6892 -116914.0643 299.1889 -135.0591 -32.4317 499908.4218 -8.7229 -8.8856
TCL: Setting parameter constraintScaling to 0.625
TCL: Running for 5000 steps
ETITLE: TS BOND ANGLE DIHED IMPRP ELECT VDW BOUNDARY MISC KINETIC TOTAL TEMP POTENTIAL TOTAL3 TEMPAVG PRESSURE GPRESSURE VOLUME PRESSAVG GPRESSAVG
ENERGY: 20000 1622.6392 2398.3638 3208.6399 0.0000 -175195.8324 19598.1218 202.1892 0.0000 31010.9401 -117154.9384 301.5102 -148165.8784 -117115.4655 301.5102 -242.9341 -130.0249 499908.4218 -242.9341 -130.0249
ENERGY: 21000 1593.6248 2440.1607 3220.0274 0.0000 -175905.4207 20131.5614 318.5812 0.0000 30766.5182 -117434.9470 299.1338 -148201.4652 -117385.5549 299.9397 51.1899 44.5616 498633.3456 -3.6592 -3.6800
ENERGY: 22000 1605.0002 2376.1697 3174.4508 0.0000 -175437.1665 19952.4913 306.2179 0.0000 30592.8842 -117429.9524 297.4456 -148022.8366 -117376.5755 298.4311 -80.6856 -28.6632 499827.2654 5.5427 5.7319
ENERGY: 23000 1617.3249 2369.2575 3185.1804 0.0000 -175503.7942 19940.4922 321.1991 0.0000 30736.6969 -117333.6431 298.8438 -148070.3400 -117283.0055 299.1292 40.2704 27.8344 500106.8923 0.8312 0.9341
ENERGY: 24000 1632.1929 2361.2223 3192.0835 0.0000 -175947.8692 20204.8212 323.3195 0.0000 30869.1886 -117365.0412 300.1320 -148234.2298 -117318.1356 298.4227 -36.6670 27.8176 498904.6043 -0.9053 -1.2181
ENERGY: 25000 1646.9312 2365.4997 3199.8913 0.0000 -175713.9959 20040.2563 312.1039 0.0000 30806.3970 -117342.9165 299.5215 -148149.3135 -117302.0430 299.0443 23.3838 45.2994 499472.7636 0.1786 0.1615
TCL: Setting parameter constraintScaling to 0.3125
TCL: Running for 5000 steps
ETITLE: TS BOND ANGLE DIHED IMPRP ELECT VDW BOUNDARY MISC KINETIC TOTAL TEMP POTENTIAL TOTAL3 TEMPAVG PRESSURE GPRESSURE VOLUME PRESSAVG GPRESSAVG
ENERGY: 25000 1646.9312 2365.4997 3199.8913 0.0000 -175713.9959 20040.2563 156.0520 0.0000 30804.3554 -117501.0101 299.5017 -148305.3654 -117458.4770 299.5017 -34.9479 -4.7899 499472.7636 -34.9479 -4.7899
ENERGY: 26000 1664.8689 2376.6512 3199.3140 0.0000 -176047.1915 20158.5980 246.6218 0.0000 30802.8829 -117598.2548 299.4873 -148401.1376 -117559.1417 298.6444 -48.0403 -5.1852 497701.3012 -12.7043 -12.9922
ENERGY: 27000 1615.3917 2391.7786 3186.8184 0.0000 -176091.2909 20172.0171 225.2993 0.0000 30671.5675 -117828.4184 298.2106 -148499.9859 -117778.2796 299.1712 -23.7035 -8.2218 497731.9220 7.7145 7.6452
ENERGY: 28000 1633.2323 2392.2030 3207.3157 0.0000 -175927.2327 20014.5356 257.8303 0.0000 30741.7484 -117680.3675 298.8929 -148422.1159 -117627.1331 298.4406 6.2636 -46.4005 496653.6894 -9.9392 -10.5667
ENERGY: 29000 1629.2793 2398.2692 3193.8211 0.0000 -175765.3934 20030.7254 252.6507 0.0000 30869.5558 -117391.0918 300.1356 -148260.6477 -117356.7304 300.5065 -35.7447 60.1709 498654.4276 13.4676 13.3728
ENERGY: 30000 1610.4242 2455.6074 3190.1544 0.0000 -175950.1954 20210.4227 274.2841 0.0000 30684.9995 -117524.3033 298.3412 -148209.3028 -117489.7947 299.8649 37.3821 62.6999 497540.5597 5.7447 5.9470
TCL: Setting parameter constraintScaling to 0.15625
TCL: Running for 5000 steps
ETITLE: TS BOND ANGLE DIHED IMPRP ELECT VDW BOUNDARY MISC KINETIC TOTAL TEMP POTENTIAL TOTAL3 TEMPAVG PRESSURE GPRESSURE VOLUME PRESSAVG GPRESSAVG
ENERGY: 30000 1610.4242 2455.6074 3190.1544 0.0000 -175950.1954 20210.4227 137.1420 0.0000 30682.9408 -117663.5040 298.3212 -148346.4448 -117619.8453 298.3212 25.8845 48.9606 497540.5597 25.8845 48.9606
ENERGY: 31000 1576.3597 2369.9748 3152.9630 0.0000 -175830.0727 20147.8417 192.9146 0.0000 30802.9480 -117587.0710 299.4880 -148390.0190 -117541.7785 299.4340 39.8818 17.5741 498662.9523 16.5507 15.6839
ENERGY: 32000 1622.6540 2452.9244 3214.2855 0.0000 -176157.1616 20241.9410 183.6549 0.0000 30862.5989 -117579.1028 300.0679 -148441.7017 -117538.2282 299.5418 31.0284 72.4350 497722.5086 -2.2795 -2.2046
ENERGY: 33000 1624.5349 2464.0872 3232.9794 0.0000 -175669.8722 19973.8539 201.5080 0.0000 30951.2430 -117221.6658 300.9298 -148172.9088 -117181.4941 300.4588 68.2183 58.6337 497362.1886 -2.6196 -2.8754
ENERGY: 34000 1645.3397 2374.6976 3225.0011 0.0000 -175982.3243 20160.9387 195.3766 0.0000 30964.1340 -117416.8366 301.0551 -148380.9706 -117365.9108 300.1863 -60.2673 -20.2240 498509.5988 2.9349 2.6454
ENERGY: 35000 1645.3687 2367.1684 3225.1690 0.0000 -175785.9699 20100.2538 212.9708 0.0000 31082.1450 -117152.8942 302.2025 -148235.0392 -117106.1088 299.7063 72.8079 101.5205 497383.9984 -19.6655 -20.0952
TCL: Setting parameter constraintScaling to 0.078125
TCL: Running for 5000 steps
ETITLE: TS BOND ANGLE DIHED IMPRP ELECT VDW BOUNDARY MISC KINETIC TOTAL TEMP POTENTIAL TOTAL3 TEMPAVG PRESSURE GPRESSURE VOLUME PRESSAVG GPRESSAVG
ENERGY: 35000 1645.3687 2367.1684 3225.1690 0.0000 -175785.9699 20100.2538 106.4854 0.0000 31080.0857 -117261.4388 302.1825 -148341.5246 -117216.3827 302.1825 101.2686 122.6060 497383.9984 101.2686 122.6060
ENERGY: 36000 1634.7141 2482.5581 3197.2797 0.0000 -175839.2457 19984.4004 149.7965 0.0000 30825.4224 -117565.0745 299.7065 -148390.4969 -117516.0752 298.8431 -107.8618 -5.7015 496813.4418 -3.3472 -3.2403
ENERGY: 37000 1621.6919 2387.2984 3230.5482 0.0000 -175562.1813 19900.5435 148.1749 0.0000 31003.9255 -117269.9989 301.4420 -148273.9244 -117229.9678 300.8543 70.9807 38.8684 497823.4493 2.8443 2.9693
ENERGY: 38000 1707.2173 2361.9069 3228.9088 0.0000 -175550.9723 19914.8098 151.0712 0.0000 30893.1575 -117293.9006 300.3650 -148187.0582 -117246.1857 299.5573 -57.2936 3.2109 497996.5325 0.4829 0.6406
ENERGY: 39000 1646.8131 2420.1322 3191.1248 0.0000 -176031.4003 20165.5340 155.6556 0.0000 30917.6063 -117534.5344 300.6028 -148452.1407 -117485.9477 300.4371 -78.7869 51.3715 497684.8708 -5.0495 -4.6446
ENERGY: 40000 1611.4310 2416.2972 3225.8771 0.0000 -176006.6222 20203.4207 152.5583 0.0000 30644.7964 -117752.2415 297.9503 -148397.0379 -117713.1023 298.9860 13.7975 55.8417 497678.5001 0.3642 0.4492
TCL: Setting parameter constraintScaling to 0.0390625
TCL: Running for 5000 steps
ETITLE: TS BOND ANGLE DIHED IMPRP ELECT VDW BOUNDARY MISC KINETIC TOTAL TEMP POTENTIAL TOTAL3 TEMPAVG PRESSURE GPRESSURE VOLUME PRESSAVG GPRESSAVG
ENERGY: 40000 1611.4310 2416.2972 3225.8771 0.0000 -176006.6222 20203.4207 76.2791 0.0000 30642.7482 -117830.5688 297.9304 -148473.3170 -117791.0256 297.9304 5.7481 47.1040 497678.5001 5.7481 47.1040
ENERGY: 41000 1588.8826 2402.9770 3199.9196 0.0000 -176055.4431 20145.6318 109.6729 0.0000 30851.6252 -117756.7339 299.9612 -148608.3591 -117712.3433 299.3821 197.6203 109.1465 497143.3470 2.4100 1.9912
ENERGY: 42000 1660.7244 2363.4980 3212.6783 0.0000 -176355.0251 20353.3832 115.3473 0.0000 30735.7339 -117913.6598 298.8345 -148649.3937 -117858.1238 299.8812 -71.0610 41.9192 496579.1337 -3.8203 -3.8342
ENERGY: 43000 1606.0271 2399.8274 3218.7789 0.0000 -176302.3936 20282.3299 122.3805 0.0000 30763.8187 -117909.2311 299.1075 -148673.0498 -117863.3311 298.5336 29.0709 45.5626 497180.9253 7.0658 6.7569
ENERGY: 44000 1618.1758 2346.4188 3216.0525 0.0000 -175686.6846 20070.5670 131.6139 0.0000 30516.2856 -117787.5711 296.7008 -148303.8566 -117745.3201 299.2974 4.4977 44.1882 497868.5769 8.4463 8.8958
ENERGY: 45000 1634.7991 2420.9144 3189.5043 0.0000 -175856.6489 19804.5897 133.8200 0.0000 30883.5732 -117789.4481 300.2719 -148673.0213 -117746.9311 298.8714 -16.6736 -26.3134 496143.1990 -10.7951 -10.7303
TCL: Setting parameter constraintScaling to 0.01953125
TCL: Running for 5000 steps
ETITLE: TS BOND ANGLE DIHED IMPRP ELECT VDW BOUNDARY MISC KINETIC TOTAL TEMP POTENTIAL TOTAL3 TEMPAVG PRESSURE GPRESSURE VOLUME PRESSAVG GPRESSAVG
ENERGY: 45000 1634.7991 2420.9144 3189.5043 0.0000 -175856.6489 19804.5897 66.9100 0.0000 30881.5343 -117858.3969 300.2520 -148739.9313 -117817.9328 300.2520 -33.8558 -41.8959 496143.1990 -33.8558 -41.8959
ENERGY: 46000 1600.2162 2414.4641 3203.0107 0.0000 -175581.5756 19963.6789 81.9037 0.0000 30900.3338 -117417.9682 300.4348 -148318.3020 -117375.5526 300.6431 -87.1957 -65.5731 496692.6865 -7.3569 -7.4800
ENERGY: 47000 1677.3859 2435.3962 3197.1102 0.0000 -176149.8342 20076.4286 78.5270 0.0000 30644.3898 -118040.5964 297.9464 -148684.9862 -117987.5806 299.1294 -5.1774 11.3567 494635.0707 -11.6675 -11.7043
ENERGY: 48000 1681.5930 2363.1707 3196.8966 0.0000 -175796.0234 20064.1134 86.0341 0.0000 30686.5752 -117717.6404 298.3565 -148404.2155 -117667.6727 299.5739 -88.6460 97.2475 496532.9812 10.5115 10.8493
ENERGY: 49000 1565.7688 2416.1933 3228.6445 0.0000 -176107.6109 20111.8709 85.3500 0.0000 31102.0256 -117597.7577 302.3958 -148699.7833 -117554.6041 300.0701 97.1356 126.3129 496881.2690 -1.3730 -0.7662
ENERGY: 50000 1679.3429 2460.7480 3214.6217 0.0000 -176179.2288 20286.3026 84.2455 0.0000 30784.4763 -117669.4919 299.3084 -148453.9682 -117632.1943 299.6599 70.1874 95.5919 495933.3000 -8.4162 -8.1441
TCL: Setting parameter constraintScaling to 0
TCL: Running for 5000 steps
ETITLE: TS BOND ANGLE DIHED IMPRP ELECT VDW BOUNDARY MISC KINETIC TOTAL TEMP POTENTIAL TOTAL3 TEMPAVG PRESSURE GPRESSURE VOLUME PRESSAVG GPRESSAVG
ENERGY: 50000 1679.3429 2460.7480 3214.6217 0.0000 -176179.2288 20286.3026 0.0000 0.0000 30782.4235 -117755.7902 299.2884 -148538.2137 -117714.2896 299.2884 61.5433 88.4463 495933.3000 61.5433 88.4463
ENERGY: 51000 1679.0290 2423.9255 3201.2526 0.0000 -175657.1087 19816.6097 0.0000 0.0000 30807.5001 -117728.7918 299.5322 -148536.2919 -117692.5617 300.0991 -232.9931 -118.3551 496149.2203 11.7884 12.5046
ENERGY: 52000 1611.9255 2438.4792 3218.9057 0.0000 -176171.3058 19952.5170 0.0000 0.0000 30765.6531 -118183.8252 299.1254 -148949.4784 -118119.7791 298.1332 -74.1572 -71.7578 495741.7967 2.2646 1.6803
ENERGY: 53000 1625.2026 2369.6418 3186.0061 0.0000 -176552.1364 20372.4948 0.0000 0.0000 30596.9214 -118401.8698 297.4848 -148998.7912 -118349.3036 297.6510 2.2623 89.8899 495759.4848 0.1800 -0.0597
ENERGY: 54000 1586.7664 2392.4020 3198.4425 0.0000 -176384.0282 20275.4173 0.0000 0.0000 30651.1592 -118279.8408 298.0122 -148931.0000 -118241.5082 298.5069 92.3281 41.7109 496933.3464 -2.5478 -2.1857
ENERGY: 55000 1627.2363 2476.6376 3182.4635 0.0000 -176335.2161 20212.6790 0.0000 0.0000 30503.8596 -118332.3400 296.5800 -148836.1997 -118283.2636 298.3155 -43.2905 -32.3508 496596.3974 0.2979 0.1662
