Info: SIMULATION PARAMETERS:
Info: TIMESTEP               1
Info: NUMBER OF STEPS        0
Info: STEPS PER CYCLE        10
Info: PERIODIC CELL BASIS 1  72.449 0 0
Info: PERIODIC CELL BASIS 2  0 93.247 0
Info: PERIODIC CELL BASIS 3  0 0 79.185
Info: PERIODIC CELL CENTER   -0.248 -0.156 -0.047
Info: WRAPPING WATERS AROUND PERIODIC BOUNDARIES ON OUTPUT.
Info: WRAPPING ALL CLUSTERS AROUND PERIODIC BOUNDARIES ON OUTPUT.
Info: FIRST LDB TIMESTEP     50
Info: LAST LDB TIMESTEP     -1
Info: HOM BACKGROUND SCALING 1
Info: PME BACKGROUND SCALING 1
Info: MIN ATOMS PER PATCH    40
Info: VELOCITY FILE          ../replicas/rep41/equilibration/eq1.vel
Info: CENTER OF MASS MOVING INITIALLY? NO
Info: DIELECTRIC             1
Info: EXCLUDE                SCALED ONE-FOUR
Info: 1-4 ELECTROSTATICS SCALED BY 0.833333
Info: MODIFIED 1-4 VDW PARAMETERS WILL BE USED
Info: DCD FILENAME           ../replicas/rep41/equilibration/eq2.dcd
Info: DCD FREQUENCY          5000
Info: DCD FIRST STEP         5000
Info: DCD FILE WILL CONTAIN UNIT CELL DATA
Info: XST FILENAME           ../replicas/rep41/equilibration/eq2.xst
Info: XST FREQUENCY          5000
Info: NO VELOCITY DCD OUTPUT
Info: NO FORCE DCD OUTPUT
Info: OUTPUT FILENAME        ../replicas/rep41/equilibration/eq2
Info: RESTART FILENAME       ../replicas/rep41/equilibration/eq2.restart
Info: RESTART FREQUENCY      5000
Info: BINARY RESTART FILES WILL BE USED
Info: SWITCHING ACTIVE
Info: SWITCHING ON           10
Info: SWITCHING OFF          12
Info: PAIRLIST DISTANCE      13.5
Info: PAIRLIST SHRINK RATE   0.01
Info: PAIRLIST GROW RATE     0.01
Info: PAIRLIST TRIGGER       0.3
Info: PAIRLISTS PER CYCLE    2
Info: PAIRLISTS ENABLED
Info: MARGIN                 0.48
Info: HYDROGEN GROUP CUTOFF  2.5
Info: PATCH DIMENSION        16.48
Info: ENERGY OUTPUT STEPS    500
Info: CROSSTERM ENERGY INCLUDED IN DIHEDRAL
Info: TIMING OUTPUT STEPS    5000
Info: PRESSURE OUTPUT STEPS  500
Info: HARMONIC CONSTRAINTS ACTIVE
Info: HARMONIC CONS EXP      2
Info: HARMONIC CONS SCALING  10
Info: LANGEVIN DYNAMICS ACTIVE
Info: LANGEVIN TEMPERATURE   300
Info: LANGEVIN USING BBK INTEGRATOR
Info: LANGEVIN DAMPING COEFFICIENT IS 5 INVERSE PS
Info: LANGEVIN DYNAMICS NOT APPLIED TO HYDROGENS
Info: BERENDSEN PRESSURE COUPLING ACTIVE
Info:     TARGET PRESSURE IS 1 BAR
Info:     COMPRESSIBILITY ESTIMATE IS 4.57e-05 BAR^(-1)
Info:     RELAXATION TIME IS 100 FS
Info:     APPLIED EVERY 2 STEPS
Info:     PRESSURE CONTROL IS GROUP-BASED
Info:       CELL FLUCTUATION IS ISOTROPIC
Info: PARTICLE MESH EWALD (PME) ACTIVE
Info: PME TOLERANCE               1e-06
Info: PME EWALD COEFFICIENT       0.257952
Info: PME INTERPOLATION ORDER     4
Info: PME GRID DIMENSIONS         80 96 80
Info: PME MAXIMUM GRID SPACING    1
Info: FULL ELECTROSTATIC EVALUATION FREQUENCY      2
Info: USING VERLET I (r-RESPA) MTS SCHEME.
Info: C1 SPLITTING OF LONG RANGE ELECTROSTATICS
Info: PLACING ATOMS IN PATCHES BY HYDROGEN GROUPS
Info: RIGID BONDS TO HYDROGEN : WATER
Info:         ERROR TOLERANCE : 1e-05
Info:          MAX ITERATIONS : 100
Info: RIGID WATER USING SETTLE ALGORITHM
Info: RANDOM NUMBER SEED     1503701699
Info: USE HYDROGEN BONDS?    NO
Info: Using AMBER format force field!
Info: AMBER PARM FILE        ../build/complex.top
Info: COORDINATE PDB         ../replicas/rep41/equilibration/eq1.coor
Info: Exclusions in PARM file will be ignored!
Info: SCNB (VDW SCALING)     2
Info: USING ARITHMETIC MEAN TO COMBINE L-J SIGMA PARAMETERS
Info: SUMMARY OF PARAMETERS:
Info: 71 BONDS
Info: 145 ANGLES
Info: 76 DIHEDRAL
Info: 0 IMPROPER
Info: 0 CROSSTERM
Info: 0 VDW
Info: 190 VDW_PAIRS
Info: 0 NBTHOLE_PAIRS
Info: STRUCTURE SUMMARY:
Info: 49394 ATOMS
Info: 49448 BONDS
Info: 8698 ANGLES
Info: 18780 DIHEDRALS
Info: 0 IMPROPERS
Info: 0 CROSSTERMS
Info: 0 EXCLUSIONS
Info: 2336 CONSTRAINTS
Info: 44667 RIGID BONDS
Info: 103515 DEGREES OF FREEDOM
Info: 17225 HYDROGEN GROUPS
Info: 4 ATOMS IN LARGEST HYDROGEN GROUP
Info: 17225 MIGRATION GROUPS
Info: 4 ATOMS IN LARGEST MIGRATION GROUP
Info: TOTAL MASS = 301478 amu
Info: TOTAL CHARGE = 1.00115e-05 e
Info: MASS DENSITY = 0.935846 g/cm^3
Info: ATOM DENSITY = 0.0923345 atoms/A^3
Info: ADDED 70656 IMPLICIT EXCLUSIONS
Info: NONBONDED TABLE R-SQUARED SPACING: 0.0625
Info: NONBONDED TABLE SIZE: 769 POINTS
Info: REMOVING COM VELOCITY -0.0311001 -0.0416584 -0.0217415
TCL: Running for 5000 steps
ETITLE: TS BOND ANGLE DIHED IMPRP ELECT VDW BOUNDARY MISC KINETIC TOTAL TEMP POTENTIAL TOTAL3 TEMPAVG PRESSURE GPRESSURE VOLUME PRESSAVG GPRESSAVG
ENERGY: 0 395.3800 1226.9261 2910.2518 0.0000 -212900.1164 29636.1063 0.0000 0.0000 10065.7434 -168665.7088 97.8663 -178731.4522 -168656.0385 97.8663 -2341.2689 -2443.4557 534946.2959 -2341.2689 -2443.4557
ENERGY: 1000 1289.8716 1940.2226 3119.3725 0.0000 -193780.5996 26404.8593 767.0162 0.0000 23969.5182 -136289.7392 233.0485 -160259.2574 -136262.1387 218.4509 -69.5146 -47.0969 521440.2144 -18.2947 -18.2822
ENERGY: 2000 1467.4988 2078.8438 3138.0350 0.0000 -184489.1265 23512.2405 766.7020 0.0000 27896.2181 -125629.5882 271.2267 -153525.8063 -125586.7381 263.6155 -62.6744 -8.8386 515906.9613 -26.8013 -26.6759
ENERGY: 3000 1544.8416 2213.2902 3143.9516 0.0000 -179158.2421 21624.7593 790.2353 0.0000 29692.2877 -120148.8765 288.6893 -149841.1642 -120101.8552 285.0780 -45.1867 -3.7239 510220.9147 -16.9161 -16.7116
ENERGY: 4000 1543.6142 2229.1508 3136.4262 0.0000 -177116.6079 20993.0419 821.5924 0.0000 30233.4434 -118159.3390 293.9508 -148392.7824 -118117.1958 292.7021 -38.7992 -39.3366 507834.8146 -4.8959 -4.4548
ENERGY: 5000 1550.6117 2251.6337 3160.0833 0.0000 -176292.3284 20580.7073 803.4560 0.0000 30606.9130 -117338.9234 297.5820 -147945.8364 -117292.4494 295.8734 -38.5714 1.1478 505701.0733 -12.1966 -12.1612
TCL: Setting parameter constraintScaling to 5.0
TCL: Running for 5000 steps
ETITLE: TS BOND ANGLE DIHED IMPRP ELECT VDW BOUNDARY MISC KINETIC TOTAL TEMP POTENTIAL TOTAL3 TEMPAVG PRESSURE GPRESSURE VOLUME PRESSAVG GPRESSAVG
ENERGY: 5000 1550.6117 2251.6337 3160.0833 0.0000 -176292.3284 20580.7073 401.7280 0.0000 30604.8655 -117742.6989 297.5621 -148347.5644 -117698.6973 297.5621 -61.3814 -17.9519 505701.0733 -61.3814 -17.9519
ENERGY: 6000 1599.9612 2249.6465 3192.9417 0.0000 -175829.6411 20337.6665 643.6750 0.0000 30850.6784 -116955.0717 299.9520 -147805.7501 -116897.2417 298.0928 -32.8602 -39.7318 505351.4992 0.4195 0.3663
ENERGY: 7000 1581.0677 2309.8084 3155.4757 0.0000 -175518.9330 20247.0331 660.0649 0.0000 30699.8813 -116865.6019 298.4859 -147565.4833 -116831.5737 299.1484 -7.1761 0.5342 504910.9548 0.1336 0.4770
ENERGY: 8000 1576.4589 2303.8917 3166.1711 0.0000 -175411.6855 19923.7438 667.5958 0.0000 30848.5555 -116925.2687 299.9314 -147773.8242 -116877.4660 298.6365 97.8442 10.5348 503313.0218 -3.5298 -3.8905
ENERGY: 9000 1585.5296 2334.6211 3142.2362 0.0000 -175070.0498 19890.4404 627.7564 0.0000 30762.4607 -116727.0053 299.0943 -147489.4660 -116672.8103 299.5225 -30.6122 -23.7896 502852.2615 9.0513 8.3771
ENERGY: 10000 1658.4640 2319.0033 3172.0949 0.0000 -175144.6412 19893.1453 665.0103 0.0000 30686.3415 -116750.5818 298.3542 -147436.9233 -116704.0998 299.8401 -5.4643 6.0865 502061.5300 10.7750 10.5400
TCL: Setting parameter constraintScaling to 2.5
TCL: Running for 5000 steps
ETITLE: TS BOND ANGLE DIHED IMPRP ELECT VDW BOUNDARY MISC KINETIC TOTAL TEMP POTENTIAL TOTAL3 TEMPAVG PRESSURE GPRESSURE VOLUME PRESSAVG GPRESSAVG
ENERGY: 10000 1658.4640 2319.0033 3172.0949 0.0000 -175144.6412 19893.1453 332.5051 0.0000 30684.2956 -117085.1328 298.3343 -147769.4285 -117041.2776 298.3343 -146.3770 -130.3140 502061.5300 -146.3770 -130.3140
ENERGY: 11000 1597.9106 2347.3340 3202.4083 0.0000 -175923.7617 20250.8818 521.3136 0.0000 31122.2294 -116881.6840 302.5922 -148003.9134 -116835.5188 300.0837 -38.6587 -50.0739 501779.5339 1.5167 1.3600
ENERGY: 12000 1668.9326 2373.2539 3176.4919 0.0000 -175705.4315 20103.3838 519.8652 0.0000 30771.7976 -117091.7064 299.1851 -147863.5040 -117052.7670 300.0243 -128.2150 -33.3717 501691.9580 7.3710 7.4371
ENERGY: 13000 1585.0480 2326.1371 3167.8231 0.0000 -175330.1721 19983.6942 512.2385 0.0000 31145.9884 -116609.2428 302.8232 -147755.2313 -116568.7285 300.3356 -99.7241 -8.9327 502347.6712 13.6806 14.1476
ENERGY: 14000 1632.9688 2369.0492 3147.7305 0.0000 -175390.3356 20121.7808 525.0082 0.0000 31020.3481 -116573.4499 301.6017 -147593.7981 -116542.6924 300.9129 -88.0895 -4.5399 501276.2104 4.0093 4.1240
ENERGY: 15000 1654.3964 2323.5369 3203.9767 0.0000 -175875.6675 20200.5607 510.3838 0.0000 30754.7791 -117228.0339 299.0196 -147982.8130 -117197.6082 301.0613 -110.7224 -37.1292 500819.3155 -0.3271 0.0135
TCL: Setting parameter constraintScaling to 1.25
TCL: Running for 5000 steps
ETITLE: TS BOND ANGLE DIHED IMPRP ELECT VDW BOUNDARY MISC KINETIC TOTAL TEMP POTENTIAL TOTAL3 TEMPAVG PRESSURE GPRESSURE VOLUME PRESSAVG GPRESSAVG
ENERGY: 15000 1654.3964 2323.5369 3203.9767 0.0000 -175875.6675 20200.5607 255.1919 0.0000 30752.7095 -117485.2954 298.9995 -148238.0049 -117441.8155 298.9995 -157.0548 -79.0556 500819.3155 -157.0548 -79.0556
ENERGY: 16000 1588.2432 2352.9143 3199.8810 0.0000 -175512.5240 20029.9585 391.3688 0.0000 30866.1065 -117084.0516 300.1020 -147950.1582 -117039.2033 300.3779 -96.9479 -18.1373 499632.7551 1.2882 0.8705
ENERGY: 17000 1591.6606 2346.9185 3175.7149 0.0000 -175624.2247 19940.3971 398.8305 0.0000 30758.7491 -117411.9540 299.0582 -148170.7031 -117365.4392 299.1729 4.8717 15.3373 499232.7035 0.5732 0.3240
ENERGY: 18000 1626.5198 2371.4124 3186.1554 0.0000 -175696.8176 20051.5435 405.3229 0.0000 30628.6675 -117427.1961 297.7935 -148055.8636 -117392.4937 298.6162 82.4327 49.0393 498111.7079 5.0009 5.2252
ENERGY: 19000 1600.4376 2355.5240 3224.3865 0.0000 -175373.9024 19747.7134 407.8364 0.0000 30918.1715 -117119.8330 300.6083 -148038.0045 -117070.5761 299.8260 24.5767 30.6375 497882.8194 -1.2017 -0.8601
ENERGY: 20000 1597.9046 2382.1294 3164.7249 0.0000 -175517.9716 20022.9863 404.8538 0.0000 30979.5037 -116965.8688 301.2046 -147945.3725 -116926.2481 300.2649 -71.6958 8.9652 497400.7923 -11.8244 -12.4607
TCL: Setting parameter constraintScaling to 0.625
TCL: Running for 5000 steps
ETITLE: TS BOND ANGLE DIHED IMPRP ELECT VDW BOUNDARY MISC KINETIC TOTAL TEMP POTENTIAL TOTAL3 TEMPAVG PRESSURE GPRESSURE VOLUME PRESSAVG GPRESSAVG
ENERGY: 20000 1597.9046 2382.1294 3164.7249 0.0000 -175517.9716 20022.9863 202.4269 0.0000 30977.4722 -117170.3272 301.1848 -148147.7994 -117130.2755 301.1848 -59.6869 22.4945 497400.7923 -59.6869 22.4945
ENERGY: 21000 1646.5280 2367.5842 3224.3661 0.0000 -175459.0945 19852.2336 323.1201 0.0000 30757.7830 -117287.4795 299.0488 -148045.2625 -117249.0968 299.8408 -114.4357 -60.1962 496950.8269 -10.5015 -10.1809
ENERGY: 22000 1657.0830 2384.1033 3201.1965 0.0000 -175537.6583 19869.0952 320.8836 0.0000 30853.2887 -117252.0080 299.9774 -148105.2967 -117208.0370 299.3012 -13.6430 59.6948 497299.0491 4.7221 4.9941
ENERGY: 23000 1687.4457 2333.7397 3204.6419 0.0000 -175872.4706 20026.2274 319.0168 0.0000 30699.2619 -117602.1372 298.4799 -148301.3991 -117577.9208 299.1041 -87.7961 5.5838 497536.1030 6.9000 7.3494
ENERGY: 24000 1641.9807 2397.2988 3177.9003 0.0000 -176009.2026 20221.1776 315.2696 0.0000 30911.1155 -117344.4601 300.5396 -148255.5756 -117295.8935 299.5922 -45.7114 61.1471 497674.7661 -0.6429 -0.4699
ENERGY: 25000 1580.5259 2424.9763 3213.1540 0.0000 -175561.2048 20017.1699 321.4188 0.0000 30787.3488 -117216.6112 299.3363 -148003.9600 -117160.9604 299.7325 5.9150 68.6703 498179.2031 7.7048 8.0333
TCL: Setting parameter constraintScaling to 0.3125
TCL: Running for 5000 steps
ETITLE: TS BOND ANGLE DIHED IMPRP ELECT VDW BOUNDARY MISC KINETIC TOTAL TEMP POTENTIAL TOTAL3 TEMPAVG PRESSURE GPRESSURE VOLUME PRESSAVG GPRESSAVG
ENERGY: 25000 1580.5259 2424.9763 3213.1540 0.0000 -175561.2048 20017.1699 160.7094 0.0000 30785.2697 -117379.3996 299.3161 -148164.6693 -117336.0812 299.3161 -25.6858 38.8569 498179.2031 -25.6858 38.8569
ENERGY: 26000 1670.0343 2346.6025 3216.1608 0.0000 -175751.5874 19958.7644 251.6750 0.0000 30673.7698 -117634.5806 298.2320 -148308.3504 -117584.1876 298.9480 -126.9969 33.0003 498453.4099 1.0681 1.5488
ENERGY: 27000 1615.1605 2403.2541 3198.9013 0.0000 -175374.8676 19933.2792 237.4413 0.0000 30726.1935 -117260.6378 298.7417 -147986.8312 -117202.9442 299.3126 -80.7117 -34.9688 499939.9775 6.5000 6.1561
ENERGY: 28000 1634.1855 2412.4538 3195.6964 0.0000 -175719.4632 20112.1074 252.8697 0.0000 30837.4179 -117274.7326 299.8231 -148112.1505 -117235.4135 299.9167 -78.2184 21.9490 498137.3904 -7.9363 -8.5751
ENERGY: 29000 1628.6923 2400.8407 3214.3620 0.0000 -175577.3624 19988.3694 269.1676 0.0000 30822.5363 -117253.3942 299.6784 -148075.9304 -117213.2963 300.5436 -17.4041 -14.3018 499256.9338 5.6396 5.3978
ENERGY: 30000 1630.2380 2330.4535 3188.7534 0.0000 -175566.1078 20007.9911 258.4081 0.0000 31080.2636 -117070.0001 302.1842 -148150.2637 -117017.6429 300.4872 78.7215 41.2720 500600.3001 16.4751 16.5567
TCL: Setting parameter constraintScaling to 0.15625
TCL: Running for 5000 steps
ETITLE: TS BOND ANGLE DIHED IMPRP ELECT VDW BOUNDARY MISC KINETIC TOTAL TEMP POTENTIAL TOTAL3 TEMPAVG PRESSURE GPRESSURE VOLUME PRESSAVG GPRESSAVG
ENERGY: 30000 1630.2380 2330.4535 3188.7534 0.0000 -175566.1078 20007.9911 129.2041 0.0000 31078.2238 -117201.2440 302.1644 -148279.4677 -117157.4986 302.1644 32.0615 -2.0316 500600.3001 32.0615 -2.0316
ENERGY: 31000 1600.6195 2428.8952 3221.0092 0.0000 -175775.3349 20154.1459 187.5808 0.0000 30849.1428 -117333.9415 299.9371 -148183.0843 -117288.1678 300.9110 -67.2714 -16.7484 499128.7389 -8.2395 -8.0794
ENERGY: 32000 1644.7161 2470.5198 3212.5021 0.0000 -175767.8509 20111.4401 192.2997 0.0000 30886.8706 -117249.5024 300.3039 -148136.3730 -117211.4285 300.6646 122.5140 76.8637 497333.0984 -7.5252 -7.7600
ENERGY: 33000 1616.8883 2394.5787 3189.5101 0.0000 -175601.9559 20025.6713 205.8516 0.0000 30853.2924 -117316.1635 299.9775 -148169.4559 -117272.9379 299.7258 -6.8909 58.7623 497372.3474 -6.7935 -6.6910
ENERGY: 34000 1629.6051 2449.8397 3219.9846 0.0000 -175690.3830 20069.4820 197.7962 0.0000 30909.8495 -117213.8259 300.5273 -148123.6754 -117158.5998 299.7203 -186.8998 -31.8376 499832.7730 1.9496 2.3106
ENERGY: 35000 1652.3770 2399.9132 3219.0816 0.0000 -175477.4029 19848.5554 207.7749 0.0000 30795.6337 -117354.0672 299.4169 -148149.7009 -117310.5937 300.2952 -25.2534 28.3439 498263.1640 1.8397 1.5547
TCL: Setting parameter constraintScaling to 0.078125
TCL: Running for 5000 steps
ETITLE: TS BOND ANGLE DIHED IMPRP ELECT VDW BOUNDARY MISC KINETIC TOTAL TEMP POTENTIAL TOTAL3 TEMPAVG PRESSURE GPRESSURE VOLUME PRESSAVG GPRESSAVG
ENERGY: 35000 1652.3770 2399.9132 3219.0816 0.0000 -175477.4029 19848.5554 103.8875 0.0000 30793.5907 -117459.9977 299.3970 -148253.5884 -117417.2525 299.3970 -76.5780 -17.7331 498263.1640 -76.5780 -17.7331
ENERGY: 36000 1644.3568 2406.7343 3240.0145 0.0000 -175455.8583 20017.1689 157.0211 0.0000 30978.5312 -117012.0315 301.1951 -147990.5627 -116963.1189 301.3138 59.0545 56.2956 499403.0617 11.9251 11.6917
ENERGY: 37000 1634.3533 2365.1604 3231.2002 0.0000 -175393.5028 19921.5017 151.7980 0.0000 30852.2812 -117237.2080 299.9676 -148089.4892 -117194.9165 301.0229 12.4763 -27.3727 497858.0065 0.8137 0.5255
ENERGY: 38000 1640.9050 2382.0746 3243.8844 0.0000 -175692.1099 19943.3940 163.1234 0.0000 30922.7095 -117396.0190 300.6524 -148318.7285 -117351.7224 299.2851 -53.4002 19.0391 496488.6521 -2.2106 -2.1482
ENERGY: 39000 1601.2610 2414.4230 3218.1808 0.0000 -175566.0515 19846.2766 163.8595 0.0000 30878.4641 -117443.5866 300.2222 -148322.0507 -117397.4154 300.6338 -58.1744 -69.0543 499126.9001 13.5462 13.2812
ENERGY: 40000 1590.5047 2420.3601 3237.6190 0.0000 -175989.1370 20165.3927 164.2484 0.0000 30829.2688 -117581.7434 299.7439 -148411.0122 -117533.1782 298.5675 109.3233 133.5151 498406.8552 9.2351 8.0127
TCL: Setting parameter constraintScaling to 0.0390625
TCL: Running for 5000 steps
ETITLE: TS BOND ANGLE DIHED IMPRP ELECT VDW BOUNDARY MISC KINETIC TOTAL TEMP POTENTIAL TOTAL3 TEMPAVG PRESSURE GPRESSURE VOLUME PRESSAVG GPRESSAVG
ENERGY: 40000 1590.5047 2420.3601 3237.6190 0.0000 -175989.1370 20165.3927 82.1242 0.0000 30827.2145 -117665.9219 299.7239 -148493.1364 -117624.7083 299.7239 91.2227 118.3074 498406.8552 91.2227 118.3074
ENERGY: 41000 1675.9987 2465.6737 3200.9777 0.0000 -176009.3578 20161.0229 103.7439 0.0000 30791.3293 -117610.6116 299.3750 -148401.9409 -117577.2746 299.5735 -94.4121 54.1295 497512.5721 1.8247 1.6473
ENERGY: 42000 1627.8537 2385.8281 3213.5290 0.0000 -175995.3220 20154.4569 119.0738 0.0000 30756.6806 -117737.9000 299.0381 -148494.5806 -117683.6341 299.5197 88.8629 42.2853 498155.0789 13.3599 13.7205
ENERGY: 43000 1644.7437 2389.5891 3211.4203 0.0000 -176075.2243 20229.1517 120.3833 0.0000 30816.5637 -117663.3726 299.6203 -148479.9362 -117615.4614 299.9633 -20.0385 -55.1680 499344.2241 6.8877 6.6308
ENERGY: 44000 1641.5983 2386.9555 3219.4208 0.0000 -176109.6299 20082.6979 117.4347 0.0000 30774.3320 -117887.1907 299.2097 -148661.5227 -117841.8186 298.5796 -72.1890 -38.6310 498616.8959 2.2884 2.4046
ENERGY: 45000 1660.7277 2394.7791 3212.7244 0.0000 -175635.1001 19847.0433 133.5667 0.0000 30893.6671 -117492.5919 300.3700 -148386.2589 -117450.9495 299.2189 -58.0080 -69.4047 497679.8580 10.9450 10.7297
TCL: Setting parameter constraintScaling to 0.01953125
TCL: Running for 5000 steps
ETITLE: TS BOND ANGLE DIHED IMPRP ELECT VDW BOUNDARY MISC KINETIC TOTAL TEMP POTENTIAL TOTAL3 TEMPAVG PRESSURE GPRESSURE VOLUME PRESSAVG GPRESSAVG
ENERGY: 45000 1660.7277 2394.7791 3212.7244 0.0000 -175635.1001 19847.0433 66.7833 0.0000 30891.5988 -117561.4435 300.3499 -148453.0423 -117521.1328 300.3499 -82.5247 -91.2083 497679.8580 -82.5247 -91.2083
ENERGY: 46000 1596.9781 2360.7835 3229.6138 0.0000 -175480.8713 19997.1978 79.0641 0.0000 30843.7453 -117373.4888 299.8846 -148217.2340 -117330.8606 299.7157 -62.0768 37.1842 497652.0348 0.6774 1.1363
ENERGY: 47000 1572.8515 2392.2811 3215.2346 0.0000 -175832.0790 20073.3305 82.1353 0.0000 30546.5351 -117949.7109 296.9949 -148496.2461 -117911.8173 299.2544 22.4657 36.5427 497739.7676 -1.3482 -0.7382
ENERGY: 48000 1640.8403 2369.5488 3211.4717 0.0000 -175771.7075 19969.6736 85.2742 0.0000 30872.0969 -117622.8020 300.1603 -148494.8989 -117580.5482 299.1028 16.6993 15.8890 494768.3925 -11.1038 -11.7778
ENERGY: 49000 1615.1767 2401.3261 3196.2084 0.0000 -175526.0986 19888.5861 84.8779 0.0000 30809.9284 -117529.9950 299.5558 -148339.9234 -117490.9709 300.0655 -79.9306 -56.9168 497370.1924 15.8667 15.8740
ENERGY: 50000 1600.0320 2351.0475 3168.3787 0.0000 -175555.0970 19977.0086 97.0412 0.0000 30799.4792 -117562.1098 299.4542 -148361.5890 -117514.5685 300.2054 -102.3783 -57.3317 494781.6869 -21.1319 -21.1633
TCL: Setting parameter constraintScaling to 0
TCL: Running for 5000 steps
ETITLE: TS BOND ANGLE DIHED IMPRP ELECT VDW BOUNDARY MISC KINETIC TOTAL TEMP POTENTIAL TOTAL3 TEMPAVG PRESSURE GPRESSURE VOLUME PRESSAVG GPRESSAVG
ENERGY: 50000 1600.0320 2351.0475 3168.3787 0.0000 -175555.0970 19977.0086 0.0000 0.0000 30797.4449 -117661.1853 299.4345 -148458.6303 -117617.7271 299.4345 -126.7577 -69.0802 494781.6869 -126.7577 -69.0802
ENERGY: 51000 1635.7913 2343.4638 3194.2212 0.0000 -175528.6900 19998.1833 0.0000 0.0000 30908.8508 -117448.1795 300.5176 -148357.0303 -117406.9823 300.4662 -90.4433 -43.5029 497101.6188 13.5143 13.5212
ENERGY: 52000 1645.8701 2409.7615 3225.1483 0.0000 -175748.9221 20022.8184 0.0000 0.0000 30943.7427 -117501.5811 300.8569 -148445.3238 -117456.0775 301.1277 23.3630 -22.6020 496933.2587 8.9901 8.4513
ENERGY: 53000 1657.8946 2445.5194 3207.4916 0.0000 -175843.7237 20055.8389 0.0000 0.0000 30891.1033 -117585.8759 300.3451 -148476.9792 -117544.4877 300.7470 -81.3685 -5.7352 496890.4616 3.3217 3.2998
ENERGY: 54000 1631.1128 2337.2149 3215.5068 0.0000 -175836.2303 19964.2756 0.0000 0.0000 30791.9281 -117896.1919 299.3808 -148688.1200 -117856.8715 300.0670 -16.3971 6.9397 496070.1717 2.4955 2.8492
ENERGY: 55000 1641.5768 2379.1813 3206.4087 0.0000 -176176.6633 20117.7230 0.0000 0.0000 30764.0174 -118067.7561 299.1095 -148831.7735 -118027.4914 300.2080 -51.1454 15.3268 495378.5569 -2.9954 -2.9849
