Info: SIMULATION PARAMETERS:
Info: TIMESTEP               1
Info: NUMBER OF STEPS        0
Info: STEPS PER CYCLE        10
Info: PERIODIC CELL BASIS 1  72.449 0 0
Info: PERIODIC CELL BASIS 2  0 93.247 0
Info: PERIODIC CELL BASIS 3  0 0 79.185
Info: PERIODIC CELL CENTER   -0.248 -0.156 -0.047
Info: WRAPPING WATERS AROUND PERIODIC BOUNDARIES ON OUTPUT.
Info: WRAPPING ALL CLUSTERS AROUND PERIODIC BOUNDARIES ON OUTPUT.
Info: FIRST LDB TIMESTEP     50
Info: LAST LDB TIMESTEP     -1
Info: HOM BACKGROUND SCALING 1
Info: PME BACKGROUND SCALING 1
Info: MIN ATOMS PER PATCH    40
Info: VELOCITY FILE          ../replicas/rep40/equilibration/eq1.vel
Info: CENTER OF MASS MOVING INITIALLY? NO
Info: DIELECTRIC             1
Info: EXCLUDE                SCALED ONE-FOUR
Info: 1-4 ELECTROSTATICS SCALED BY 0.833333
Info: MODIFIED 1-4 VDW PARAMETERS WILL BE USED
Info: DCD FILENAME           ../replicas/rep40/equilibration/eq2.dcd
Info: DCD FREQUENCY          5000
Info: DCD FIRST STEP         5000
Info: DCD FILE WILL CONTAIN UNIT CELL DATA
Info: XST FILENAME           ../replicas/rep40/equilibration/eq2.xst
Info: XST FREQUENCY          5000
Info: NO VELOCITY DCD OUTPUT
Info: NO FORCE DCD OUTPUT
Info: OUTPUT FILENAME        ../replicas/rep40/equilibration/eq2
Info: RESTART FILENAME       ../replicas/rep40/equilibration/eq2.restart
Info: RESTART FREQUENCY      5000
Info: BINARY RESTART FILES WILL BE USED
Info: SWITCHING ACTIVE
Info: SWITCHING ON           10
Info: SWITCHING OFF          12
Info: PAIRLIST DISTANCE      13.5
Info: PAIRLIST SHRINK RATE   0.01
Info: PAIRLIST GROW RATE     0.01
Info: PAIRLIST TRIGGER       0.3
Info: PAIRLISTS PER CYCLE    2
Info: PAIRLISTS ENABLED
Info: MARGIN                 0.48
Info: HYDROGEN GROUP CUTOFF  2.5
Info: PATCH DIMENSION        16.48
Info: ENERGY OUTPUT STEPS    500
Info: CROSSTERM ENERGY INCLUDED IN DIHEDRAL
Info: TIMING OUTPUT STEPS    5000
Info: PRESSURE OUTPUT STEPS  500
Info: HARMONIC CONSTRAINTS ACTIVE
Info: HARMONIC CONS EXP      2
Info: HARMONIC CONS SCALING  10
Info: LANGEVIN DYNAMICS ACTIVE
Info: LANGEVIN TEMPERATURE   300
Info: LANGEVIN USING BBK INTEGRATOR
Info: LANGEVIN DAMPING COEFFICIENT IS 5 INVERSE PS
Info: LANGEVIN DYNAMICS NOT APPLIED TO HYDROGENS
Info: BERENDSEN PRESSURE COUPLING ACTIVE
Info:     TARGET PRESSURE IS 1 BAR
Info:     COMPRESSIBILITY ESTIMATE IS 4.57e-05 BAR^(-1)
Info:     RELAXATION TIME IS 100 FS
Info:     APPLIED EVERY 2 STEPS
Info:     PRESSURE CONTROL IS GROUP-BASED
Info:       CELL FLUCTUATION IS ISOTROPIC
Info: PARTICLE MESH EWALD (PME) ACTIVE
Info: PME TOLERANCE               1e-06
Info: PME EWALD COEFFICIENT       0.257952
Info: PME INTERPOLATION ORDER     4
Info: PME GRID DIMENSIONS         80 96 80
Info: PME MAXIMUM GRID SPACING    1
Info: FULL ELECTROSTATIC EVALUATION FREQUENCY      2
Info: USING VERLET I (r-RESPA) MTS SCHEME.
Info: C1 SPLITTING OF LONG RANGE ELECTROSTATICS
Info: PLACING ATOMS IN PATCHES BY HYDROGEN GROUPS
Info: RIGID BONDS TO HYDROGEN : WATER
Info:         ERROR TOLERANCE : 1e-05
Info:          MAX ITERATIONS : 100
Info: RIGID WATER USING SETTLE ALGORITHM
Info: RANDOM NUMBER SEED     1503716212
Info: USE HYDROGEN BONDS?    NO
Info: Using AMBER format force field!
Info: AMBER PARM FILE        ../build/complex.top
Info: COORDINATE PDB         ../replicas/rep40/equilibration/eq1.coor
Info: Exclusions in PARM file will be ignored!
Info: SCNB (VDW SCALING)     2
Info: USING ARITHMETIC MEAN TO COMBINE L-J SIGMA PARAMETERS
Info: SUMMARY OF PARAMETERS:
Info: 71 BONDS
Info: 145 ANGLES
Info: 76 DIHEDRAL
Info: 0 IMPROPER
Info: 0 CROSSTERM
Info: 0 VDW
Info: 190 VDW_PAIRS
Info: 0 NBTHOLE_PAIRS
Info: STRUCTURE SUMMARY:
Info: 49394 ATOMS
Info: 49448 BONDS
Info: 8698 ANGLES
Info: 18780 DIHEDRALS
Info: 0 IMPROPERS
Info: 0 CROSSTERMS
Info: 0 EXCLUSIONS
Info: 2336 CONSTRAINTS
Info: 44667 RIGID BONDS
Info: 103515 DEGREES OF FREEDOM
Info: 17225 HYDROGEN GROUPS
Info: 4 ATOMS IN LARGEST HYDROGEN GROUP
Info: 17225 MIGRATION GROUPS
Info: 4 ATOMS IN LARGEST MIGRATION GROUP
Info: TOTAL MASS = 301478 amu
Info: TOTAL CHARGE = 1.00115e-05 e
Info: MASS DENSITY = 0.935846 g/cm^3
Info: ATOM DENSITY = 0.0923345 atoms/A^3
Info: ADDED 70656 IMPLICIT EXCLUSIONS
Info: NONBONDED TABLE R-SQUARED SPACING: 0.0625
Info: NONBONDED TABLE SIZE: 769 POINTS
Info: REMOVING COM VELOCITY -0.00531809 -0.0300135 -0.00782539
TCL: Running for 5000 steps
ETITLE: TS BOND ANGLE DIHED IMPRP ELECT VDW BOUNDARY MISC KINETIC TOTAL TEMP POTENTIAL TOTAL3 TEMPAVG PRESSURE GPRESSURE VOLUME PRESSAVG GPRESSAVG
ENERGY: 0 375.9525 1233.6140 2908.2418 0.0000 -212369.3804 29374.8457 0.0000 0.0000 10072.7712 -168403.9552 97.9346 -178476.7264 -168394.3200 97.9346 -2278.6396 -2379.5057 534946.2959 -2278.6396 -2379.5057
ENERGY: 1000 1218.5636 1972.3794 3098.0995 0.0000 -193255.0430 26230.3444 750.9755 0.0000 24177.9296 -135806.7510 235.0749 -159984.6806 -135782.3497 219.3221 -74.5153 -30.6971 521569.2345 -21.3672 -21.6680
ENERGY: 2000 1460.4131 2231.9696 3107.4028 0.0000 -183350.5197 22858.5082 814.1018 0.0000 27889.6395 -124988.4846 271.1627 -152878.1241 -124954.3758 265.1728 13.5070 -23.2550 515252.7521 -28.7562 -29.2952
ENERGY: 3000 1493.2525 2236.7581 3128.1212 0.0000 -179222.9517 21744.0915 798.8562 0.0000 29567.1774 -120254.6948 287.4729 -149821.8722 -120211.7979 284.7785 -30.9190 -24.9072 509291.5674 -23.1728 -22.8310
ENERGY: 4000 1552.5709 2231.9444 3116.3464 0.0000 -176891.5139 20739.9658 808.7367 0.0000 30322.4640 -118119.4855 294.8164 -148441.9495 -118071.3451 293.1034 -99.4203 -12.0710 505317.1518 -11.1471 -10.9158
ENERGY: 5000 1558.3828 2275.4830 3149.9729 0.0000 -176262.8601 20518.0915 853.1953 0.0000 30456.3745 -117451.3602 296.1183 -147907.7347 -117409.1171 296.4024 -28.4920 -26.6585 503857.4029 1.1600 0.9728
TCL: Setting parameter constraintScaling to 5.0
TCL: Running for 5000 steps
ETITLE: TS BOND ANGLE DIHED IMPRP ELECT VDW BOUNDARY MISC KINETIC TOTAL TEMP POTENTIAL TOTAL3 TEMPAVG PRESSURE GPRESSURE VOLUME PRESSAVG GPRESSAVG
ENERGY: 5000 1558.3828 2275.4830 3149.9729 0.0000 -176262.8601 20518.0915 426.5976 0.0000 30454.3168 -117880.0155 296.0983 -148334.3323 -117836.4720 296.0983 -11.6683 -7.0548 503857.4029 -11.6683 -7.0548
ENERGY: 6000 1611.9380 2292.6198 3143.5189 0.0000 -176023.3344 20512.7165 661.5828 0.0000 30812.1110 -116988.8472 299.5771 -147800.9583 -116959.9457 299.3097 -48.9713 -14.4333 502999.2487 8.9236 9.3080
ENERGY: 7000 1610.0993 2265.3661 3163.0320 0.0000 -175675.7377 20079.7422 631.2672 0.0000 30573.2389 -117352.9920 297.2546 -147926.2309 -117316.4300 297.9823 2.1533 57.9434 502149.0702 0.7203 0.9918
ENERGY: 8000 1566.2981 2292.3576 3147.0864 0.0000 -175335.1472 19873.9936 649.9580 0.0000 30779.9015 -117025.5520 299.2639 -147805.4535 -116978.1716 299.5814 -18.3766 -19.4662 502047.1827 -2.0928 -2.1827
ENERGY: 9000 1605.6591 2328.8210 3153.6885 0.0000 -175717.7747 20316.1993 648.9371 0.0000 31043.2928 -116621.1769 301.8248 -147664.4697 -116571.0448 299.5417 -9.0358 21.1062 502184.1734 12.0805 11.9752
ENERGY: 10000 1619.5102 2227.0400 3130.7281 0.0000 -175024.4614 19871.0461 627.2735 0.0000 30891.8589 -116657.0045 300.3524 -147548.8634 -116606.0361 298.5027 -91.4718 9.5960 500994.4177 -4.7390 -4.8340
TCL: Setting parameter constraintScaling to 2.5
TCL: Running for 5000 steps
ETITLE: TS BOND ANGLE DIHED IMPRP ELECT VDW BOUNDARY MISC KINETIC TOTAL TEMP POTENTIAL TOTAL3 TEMPAVG PRESSURE GPRESSURE VOLUME PRESSAVG GPRESSAVG
ENERGY: 10000 1619.5102 2227.0400 3130.7281 0.0000 -175024.4614 19871.0461 313.6368 0.0000 30889.8167 -116972.6835 300.3326 -147862.5002 -116932.8003 300.3326 -214.5269 -106.0584 500994.4177 -214.5269 -106.0584
ENERGY: 11000 1606.7879 2339.1971 3128.0203 0.0000 -175365.4894 19984.7660 525.0701 0.0000 30932.6776 -116848.9705 300.7493 -147781.6480 -116807.5543 300.5497 -11.4249 -51.8687 499814.5304 1.8415 1.9104
ENERGY: 12000 1579.6558 2365.8209 3168.1400 0.0000 -175476.2282 20018.0405 499.4230 0.0000 30851.3405 -116993.8076 299.9585 -147845.1480 -116936.3541 300.6044 -118.0479 -15.5195 501533.5760 10.4446 10.4645
ENERGY: 13000 1604.5435 2306.5170 3176.6660 0.0000 -175733.3771 20066.6473 512.2342 0.0000 30870.9091 -117195.8600 300.1487 -148066.7690 -117151.2967 299.7847 -54.2005 -76.0937 501426.5225 0.2599 0.1963
ENERGY: 14000 1569.4540 2381.4166 3154.3639 0.0000 -175841.8492 20237.8256 511.7431 0.0000 30694.5895 -117292.4564 298.4344 -147987.0459 -117248.9868 298.8646 83.4543 106.7769 500223.3333 1.1994 1.2230
ENERGY: 15000 1703.6330 2343.3683 3175.2719 0.0000 -175737.8566 20014.8334 498.4009 0.0000 31023.8004 -116978.5487 301.6353 -148002.3491 -116926.2215 299.5460 4.3467 40.9135 500099.3736 0.2594 0.1676
TCL: Setting parameter constraintScaling to 1.25
TCL: Running for 5000 steps
ETITLE: TS BOND ANGLE DIHED IMPRP ELECT VDW BOUNDARY MISC KINETIC TOTAL TEMP POTENTIAL TOTAL3 TEMPAVG PRESSURE GPRESSURE VOLUME PRESSAVG GPRESSAVG
ENERGY: 15000 1703.6330 2343.3683 3175.2719 0.0000 -175737.8566 20014.8334 249.2005 0.0000 31021.7354 -117229.8142 301.6152 -148251.5496 -117186.5669 301.6152 -120.3378 -80.0121 500099.3736 -120.3378 -80.0121
ENERGY: 16000 1605.4286 2378.9830 3202.4410 0.0000 -175577.1492 20065.1683 382.9385 0.0000 30866.8407 -117075.3491 300.1092 -147942.1898 -117026.5181 299.9799 65.5558 3.3109 500620.0065 5.6391 5.1210
ENERGY: 17000 1635.2702 2317.0560 3157.4842 0.0000 -176296.8253 20530.1932 400.5902 0.0000 30927.8555 -117328.3760 300.7024 -148256.2315 -117286.2233 299.0401 35.1900 18.1615 499425.6277 -3.8911 -4.0854
ENERGY: 18000 1622.3376 2423.9553 3196.0951 0.0000 -175836.4774 20143.6961 386.9707 0.0000 30879.2356 -117184.1869 300.2297 -148063.4226 -117139.8236 300.0688 -106.6209 -60.4111 498001.3090 -9.0983 -9.3993
ENERGY: 19000 1661.1019 2427.1684 3242.4573 0.0000 -175801.4812 20030.6030 405.8907 0.0000 30739.1917 -117295.0682 298.8681 -148034.2599 -117259.4545 299.9082 -33.6652 -26.4169 497113.4660 -12.5191 -12.6306
ENERGY: 20000 1625.5951 2408.5873 3175.0092 0.0000 -175839.8922 20102.2278 387.7065 0.0000 30852.0319 -117288.7345 299.9652 -148140.7663 -117247.8270 300.9379 -20.8922 -12.9240 498520.1364 12.0013 12.6851
TCL: Setting parameter constraintScaling to 0.625
TCL: Running for 5000 steps
ETITLE: TS BOND ANGLE DIHED IMPRP ELECT VDW BOUNDARY MISC KINETIC TOTAL TEMP POTENTIAL TOTAL3 TEMPAVG PRESSURE GPRESSURE VOLUME PRESSAVG GPRESSAVG
ENERGY: 20000 1625.5951 2408.5873 3175.0092 0.0000 -175839.8922 20102.2278 193.8533 0.0000 30849.9875 -117484.6321 299.9453 -148334.6196 -117440.1809 299.9453 -66.7589 -58.6460 498520.1364 -66.7589 -58.6460
ENERGY: 21000 1649.7996 2340.3114 3210.1217 0.0000 -175704.4310 20070.1923 324.0206 0.0000 30724.0102 -117385.9752 298.7205 -148109.9854 -117351.8189 299.8954 -44.1560 -51.5304 498624.0900 -2.9361 -2.5363
ENERGY: 22000 1640.9994 2403.3157 3218.2263 0.0000 -175424.8724 19990.2673 299.0841 0.0000 30690.8345 -117182.1449 298.3979 -147872.9795 -117134.2845 299.7422 -71.0830 -28.8475 497504.3984 6.1071 6.5631
ENERGY: 23000 1681.6837 2387.6576 3217.5917 0.0000 -175952.5699 20132.6825 309.6237 0.0000 30982.8145 -117240.5163 301.2368 -148223.3308 -117193.1329 300.0576 -82.0635 18.6294 497743.7190 -1.9838 -2.2773
ENERGY: 24000 1569.1023 2366.5127 3221.2123 0.0000 -175912.3217 20235.4949 326.7668 0.0000 30831.2159 -117362.0168 299.7628 -148193.2327 -117312.1970 299.6376 -8.9608 49.2592 498031.0617 4.3475 4.3393
ENERGY: 25000 1567.9430 2444.8669 3217.3978 0.0000 -175858.1562 20172.4803 310.5390 0.0000 30766.4231 -117378.5060 299.1328 -148144.9292 -117331.5088 298.4858 41.2424 53.4193 497977.2209 3.6293 3.4007
TCL: Setting parameter constraintScaling to 0.3125
TCL: Running for 5000 steps
ETITLE: TS BOND ANGLE DIHED IMPRP ELECT VDW BOUNDARY MISC KINETIC TOTAL TEMP POTENTIAL TOTAL3 TEMPAVG PRESSURE GPRESSURE VOLUME PRESSAVG GPRESSAVG
ENERGY: 25000 1567.9430 2444.8669 3217.3978 0.0000 -175858.1562 20172.4803 155.2695 0.0000 30764.3732 -117535.8255 299.1129 -148300.1987 -117488.2438 299.1129 3.6150 15.1959 497977.2209 3.6150 15.1959
ENERGY: 26000 1618.1777 2413.9335 3198.7642 0.0000 -175698.2197 20023.8483 237.1265 0.0000 30959.7486 -117246.6208 301.0125 -148206.3694 -117207.5343 299.8760 -82.3763 27.5210 498752.1987 3.6639 3.6237
ENERGY: 27000 1631.8072 2432.8656 3170.8363 0.0000 -176153.1211 20279.1824 239.5090 0.0000 30953.6882 -117445.2324 300.9536 -148398.9205 -117394.7107 300.1798 -29.7128 9.2259 497364.2388 0.4684 0.2858
ENERGY: 28000 1670.0606 2394.8958 3203.4903 0.0000 -176003.4139 20169.1141 249.9619 0.0000 30936.7554 -117379.1358 300.7889 -148315.8912 -117336.6275 299.4575 -96.7306 -3.0720 497064.8393 -11.0364 -11.0001
ENERGY: 29000 1624.1090 2360.5453 3198.0607 0.0000 -175454.3223 20031.6426 257.2726 0.0000 30876.0616 -117106.6305 300.1988 -147982.6922 -117070.7230 300.5398 -191.3869 -52.3199 497355.9964 -2.1311 -2.3114
ENERGY: 30000 1661.3324 2461.3424 3213.1098 0.0000 -175939.4753 20088.7678 251.3378 0.0000 30838.3572 -117425.2280 299.8322 -148263.5852 -117375.6576 299.9076 -130.7030 -38.3886 496402.7935 2.4833 1.9470
TCL: Setting parameter constraintScaling to 0.15625
TCL: Running for 5000 steps
ETITLE: TS BOND ANGLE DIHED IMPRP ELECT VDW BOUNDARY MISC KINETIC TOTAL TEMP POTENTIAL TOTAL3 TEMPAVG PRESSURE GPRESSURE VOLUME PRESSAVG GPRESSAVG
ENERGY: 30000 1661.3324 2461.3424 3213.1098 0.0000 -175939.4753 20088.7678 125.6689 0.0000 30836.2794 -117552.9746 299.8120 -148389.2541 -117514.1428 299.8120 -149.5890 -57.1997 496402.7935 -149.5890 -57.1997
ENERGY: 31000 1624.7099 2405.7288 3186.1364 0.0000 -175909.7558 20066.8627 182.8947 0.0000 30924.2832 -117519.1400 300.6677 -148443.4233 -117479.2531 299.5058 34.6856 69.6202 497213.3036 4.7075 4.3661
ENERGY: 32000 1622.6663 2376.9531 3177.1953 0.0000 -176000.8737 20086.1623 200.5397 0.0000 30959.3859 -117577.9712 301.0090 -148537.3571 -117528.5783 299.0472 -61.0720 20.7160 498203.4056 4.6616 4.6376
ENERGY: 33000 1594.1352 2395.2187 3234.6618 0.0000 -175391.8872 19816.9302 196.0293 0.0000 30888.4568 -117266.4552 300.3193 -148154.9120 -117224.3943 300.4477 -74.5322 19.0548 497805.2949 -3.8763 -3.5834
ENERGY: 34000 1620.5765 2435.7715 3216.5421 0.0000 -175951.2103 20191.5495 188.5639 0.0000 30805.2430 -117492.9636 299.5103 -148298.2066 -117438.4119 300.3970 26.9709 72.1728 498949.9520 7.2975 6.8145
ENERGY: 35000 1583.5530 2449.8129 3229.1906 0.0000 -175412.5382 19803.2967 201.1718 0.0000 30933.2135 -117212.2998 300.7545 -148145.5133 -117175.1966 300.0596 103.5893 32.5254 498326.7937 3.1687 3.2035
TCL: Setting parameter constraintScaling to 0.078125
TCL: Running for 5000 steps
ETITLE: TS BOND ANGLE DIHED IMPRP ELECT VDW BOUNDARY MISC KINETIC TOTAL TEMP POTENTIAL TOTAL3 TEMPAVG PRESSURE GPRESSURE VOLUME PRESSAVG GPRESSAVG
ENERGY: 35000 1583.5530 2449.8129 3229.1906 0.0000 -175412.5382 19803.2967 100.5859 0.0000 30931.1581 -117314.9411 300.7345 -148246.0992 -117270.7768 300.7345 84.2185 11.3269 498326.7937 84.2185 11.3269
ENERGY: 36000 1653.9022 2426.1232 3213.9266 0.0000 -175280.5173 19835.5558 152.7812 0.0000 30993.6928 -117004.5356 301.3425 -147998.2284 -116957.7791 301.1147 -186.4998 -3.3257 496692.3369 1.6656 1.8711
ENERGY: 37000 1674.1421 2402.3209 3189.1413 0.0000 -176106.0474 20179.7249 155.5168 0.0000 30595.3842 -117909.8173 297.4699 -148505.2015 -117870.1901 298.9387 -18.9946 -41.1332 495691.3828 -10.2388 -10.0385
ENERGY: 38000 1681.3090 2417.6057 3238.0890 0.0000 -176059.4246 20025.8030 168.0225 0.0000 30725.4133 -117803.1821 298.7341 -148528.5955 -117759.0109 299.3202 111.8611 95.3408 496471.0560 -1.1992 -1.2427
ENERGY: 39000 1629.9427 2432.8855 3183.1526 0.0000 -175899.3232 20027.0071 165.2780 0.0000 30971.1263 -117489.9309 301.1231 -148461.0572 -117454.0483 299.8220 -33.1283 6.2977 496613.4726 -0.9872 -0.4026
ENERGY: 40000 1643.6370 2422.4751 3201.4521 0.0000 -175732.3756 19838.8509 174.6904 0.0000 30764.3189 -117686.9513 299.1124 -148451.2702 -117637.0638 299.4591 -84.8182 5.8831 496701.8967 -0.0649 -0.2507
TCL: Setting parameter constraintScaling to 0.0390625
TCL: Running for 5000 steps
ETITLE: TS BOND ANGLE DIHED IMPRP ELECT VDW BOUNDARY MISC KINETIC TOTAL TEMP POTENTIAL TOTAL3 TEMPAVG PRESSURE GPRESSURE VOLUME PRESSAVG GPRESSAVG
ENERGY: 40000 1643.6370 2422.4751 3201.4521 0.0000 -175732.3756 19838.8509 87.3452 0.0000 30762.2673 -117776.3481 299.0924 -148538.6154 -117733.8667 299.0924 -104.2021 -15.6362 496701.8967 -104.2021 -15.6362
ENERGY: 41000 1668.6788 2475.9715 3201.2087 0.0000 -176140.5610 20118.4176 106.0569 0.0000 30672.3946 -117897.8329 298.2186 -148570.2275 -117858.9969 299.7784 -42.1668 0.3866 495308.7489 -4.7137 -4.7516
ENERGY: 42000 1599.6131 2449.8362 3233.6396 0.0000 -175798.1045 19978.7676 107.4489 0.0000 30727.0576 -117701.7414 298.7501 -148428.7991 -117659.5122 299.8635 11.5894 19.1269 495149.9947 -5.2821 -5.6052
ENERGY: 43000 1634.7677 2410.3949 3151.8225 0.0000 -176096.7388 20249.0788 110.8629 0.0000 30797.4541 -117742.3577 299.4346 -148539.8119 -117695.3738 299.4428 -134.6261 -0.1763 497581.2555 20.5748 20.8792
ENERGY: 44000 1712.0490 2388.4883 3199.2014 0.0000 -175986.9224 20008.2287 119.5573 0.0000 30787.0440 -117772.3535 299.3333 -148559.3976 -117719.2203 299.4359 -100.4426 -33.6507 496968.5665 -12.0096 -11.8936
ENERGY: 45000 1610.5931 2447.2452 3218.8614 0.0000 -176005.8065 20072.6610 117.1820 0.0000 30804.5975 -117734.6663 299.5040 -148539.2638 -117693.7143 299.8107 -154.6709 -60.4543 495850.6292 -12.0338 -11.9767
TCL: Setting parameter constraintScaling to 0.01953125
TCL: Running for 5000 steps
ETITLE: TS BOND ANGLE DIHED IMPRP ELECT VDW BOUNDARY MISC KINETIC TOTAL TEMP POTENTIAL TOTAL3 TEMPAVG PRESSURE GPRESSURE VOLUME PRESSAVG GPRESSAVG
ENERGY: 45000 1610.5931 2447.2452 3218.8614 0.0000 -176005.8065 20072.6610 58.5910 0.0000 30802.5313 -117795.3235 299.4839 -148597.8548 -117751.6266 299.4839 -171.0143 -66.6800 495850.6292 -171.0143 -66.6800
ENERGY: 46000 1614.3240 2351.8588 3220.5888 0.0000 -176031.6958 19951.1681 78.9732 0.0000 30546.5045 -118268.2786 296.9946 -148814.7831 -118231.4186 298.5437 -53.0488 -71.0430 495932.5464 5.7048 4.7456
ENERGY: 47000 1594.8523 2439.3845 3250.7438 0.0000 -176016.8766 20142.2029 81.2818 0.0000 30731.9043 -117776.5069 298.7972 -148508.4112 -117730.8712 299.3039 109.2599 80.5107 495946.9039 6.3874 6.0661
ENERGY: 48000 1661.1650 2380.7266 3206.6010 0.0000 -175973.8487 20058.8166 88.3330 0.0000 30573.2981 -118004.9084 297.2552 -148578.2065 -117963.6326 298.3567 -119.1923 -13.2202 496905.0751 8.5929 8.5271
ENERGY: 49000 1623.0218 2360.1628 3229.7175 0.0000 -176465.1572 20291.9699 94.3494 0.0000 30790.6589 -118075.2769 299.3685 -148865.9357 -118016.8896 299.1827 50.5959 82.3136 498224.6320 4.1533 4.0067
ENERGY: 50000 1625.8699 2396.7341 3188.0674 0.0000 -176231.1269 20279.6785 92.3346 0.0000 30612.2857 -118036.1566 297.6342 -148648.4423 -117996.7993 297.7202 106.5254 104.9976 497415.5658 -6.1859 -5.6722
TCL: Setting parameter constraintScaling to 0
TCL: Running for 5000 steps
ETITLE: TS BOND ANGLE DIHED IMPRP ELECT VDW BOUNDARY MISC KINETIC TOTAL TEMP POTENTIAL TOTAL3 TEMPAVG PRESSURE GPRESSURE VOLUME PRESSAVG GPRESSAVG
ENERGY: 50000 1625.8699 2396.7341 3188.0674 0.0000 -176231.1269 20279.6785 0.0000 0.0000 30610.2627 -118130.5141 297.6145 -148740.7769 -118086.8117 297.6145 67.3042 73.2522 497415.5658 67.3042 73.2522
ENERGY: 51000 1590.1093 2429.1281 3217.3794 0.0000 -175664.3491 20027.9486 0.0000 0.0000 30614.0202 -117785.7634 297.6511 -148399.7836 -117738.0008 299.1527 18.0420 38.0665 496841.3567 9.2190 9.1947
ENERGY: 52000 1562.4868 2421.4309 3208.7451 0.0000 -176324.5421 20208.3620 0.0000 0.0000 30893.5488 -118029.9685 300.3689 -148923.5172 -117984.8334 298.8934 13.5186 23.0365 497118.8596 8.3813 7.8174
ENERGY: 53000 1594.0047 2453.7527 3210.7780 0.0000 -176035.2657 19943.0396 0.0000 0.0000 30998.9683 -117834.7224 301.3938 -148833.6906 -117783.5404 299.5788 115.2852 62.9614 497097.1943 14.7920 14.3356
ENERGY: 54000 1554.5871 2367.1212 3182.0562 0.0000 -176828.6818 20466.0150 0.0000 0.0000 30533.8611 -118725.0412 296.8717 -149258.9023 -118677.3995 297.2839 113.3854 15.7722 497167.7924 -0.8644 -1.0237
ENERGY: 55000 1621.9535 2417.5158 3238.0083 0.0000 -176375.1900 20052.4843 0.0000 0.0000 30720.0272 -118325.2010 298.6818 -149045.2282 -118271.8476 298.0467 -224.3089 -82.8278 496197.8299 -3.6587 -3.7971
