Info: SIMULATION PARAMETERS:
Info: TIMESTEP               1
Info: NUMBER OF STEPS        0
Info: STEPS PER CYCLE        10
Info: PERIODIC CELL BASIS 1  72.449 0 0
Info: PERIODIC CELL BASIS 2  0 93.247 0
Info: PERIODIC CELL BASIS 3  0 0 79.185
Info: PERIODIC CELL CENTER   -0.248 -0.156 -0.047
Info: WRAPPING WATERS AROUND PERIODIC BOUNDARIES ON OUTPUT.
Info: WRAPPING ALL CLUSTERS AROUND PERIODIC BOUNDARIES ON OUTPUT.
Info: FIRST LDB TIMESTEP     50
Info: LAST LDB TIMESTEP     -1
Info: HOM BACKGROUND SCALING 1
Info: PME BACKGROUND SCALING 1
Info: MIN ATOMS PER PATCH    40
Info: VELOCITY FILE          ../replicas/rep16/equilibration/eq1.vel
Info: CENTER OF MASS MOVING INITIALLY? NO
Info: DIELECTRIC             1
Info: EXCLUDE                SCALED ONE-FOUR
Info: 1-4 ELECTROSTATICS SCALED BY 0.833333
Info: MODIFIED 1-4 VDW PARAMETERS WILL BE USED
Info: DCD FILENAME           ../replicas/rep16/equilibration/eq2.dcd
Info: DCD FREQUENCY          5000
Info: DCD FIRST STEP         5000
Info: DCD FILE WILL CONTAIN UNIT CELL DATA
Info: XST FILENAME           ../replicas/rep16/equilibration/eq2.xst
Info: XST FREQUENCY          5000
Info: NO VELOCITY DCD OUTPUT
Info: NO FORCE DCD OUTPUT
Info: OUTPUT FILENAME        ../replicas/rep16/equilibration/eq2
Info: RESTART FILENAME       ../replicas/rep16/equilibration/eq2.restart
Info: RESTART FREQUENCY      5000
Info: BINARY RESTART FILES WILL BE USED
Info: SWITCHING ACTIVE
Info: SWITCHING ON           10
Info: SWITCHING OFF          12
Info: PAIRLIST DISTANCE      13.5
Info: PAIRLIST SHRINK RATE   0.01
Info: PAIRLIST GROW RATE     0.01
Info: PAIRLIST TRIGGER       0.3
Info: PAIRLISTS PER CYCLE    2
Info: PAIRLISTS ENABLED
Info: MARGIN                 0.48
Info: HYDROGEN GROUP CUTOFF  2.5
Info: PATCH DIMENSION        16.48
Info: ENERGY OUTPUT STEPS    500
Info: CROSSTERM ENERGY INCLUDED IN DIHEDRAL
Info: TIMING OUTPUT STEPS    5000
Info: PRESSURE OUTPUT STEPS  500
Info: HARMONIC CONSTRAINTS ACTIVE
Info: HARMONIC CONS EXP      2
Info: HARMONIC CONS SCALING  10
Info: LANGEVIN DYNAMICS ACTIVE
Info: LANGEVIN TEMPERATURE   300
Info: LANGEVIN USING BBK INTEGRATOR
Info: LANGEVIN DAMPING COEFFICIENT IS 5 INVERSE PS
Info: LANGEVIN DYNAMICS NOT APPLIED TO HYDROGENS
Info: BERENDSEN PRESSURE COUPLING ACTIVE
Info:     TARGET PRESSURE IS 1 BAR
Info:     COMPRESSIBILITY ESTIMATE IS 4.57e-05 BAR^(-1)
Info:     RELAXATION TIME IS 100 FS
Info:     APPLIED EVERY 2 STEPS
Info:     PRESSURE CONTROL IS GROUP-BASED
Info:       CELL FLUCTUATION IS ISOTROPIC
Info: PARTICLE MESH EWALD (PME) ACTIVE
Info: PME TOLERANCE               1e-06
Info: PME EWALD COEFFICIENT       0.257952
Info: PME INTERPOLATION ORDER     4
Info: PME GRID DIMENSIONS         80 96 80
Info: PME MAXIMUM GRID SPACING    1
Info: FULL ELECTROSTATIC EVALUATION FREQUENCY      2
Info: USING VERLET I (r-RESPA) MTS SCHEME.
Info: C1 SPLITTING OF LONG RANGE ELECTROSTATICS
Info: PLACING ATOMS IN PATCHES BY HYDROGEN GROUPS
Info: RIGID BONDS TO HYDROGEN : WATER
Info:         ERROR TOLERANCE : 1e-05
Info:          MAX ITERATIONS : 100
Info: RIGID WATER USING SETTLE ALGORITHM
Info: RANDOM NUMBER SEED     1503253568
Info: USE HYDROGEN BONDS?    NO
Info: Using AMBER format force field!
Info: AMBER PARM FILE        ../build/complex.top
Info: COORDINATE PDB         ../replicas/rep16/equilibration/eq1.coor
Info: Exclusions in PARM file will be ignored!
Info: SCNB (VDW SCALING)     2
Info: USING ARITHMETIC MEAN TO COMBINE L-J SIGMA PARAMETERS
Info: SUMMARY OF PARAMETERS:
Info: 71 BONDS
Info: 145 ANGLES
Info: 76 DIHEDRAL
Info: 0 IMPROPER
Info: 0 CROSSTERM
Info: 0 VDW
Info: 190 VDW_PAIRS
Info: 0 NBTHOLE_PAIRS
Info: STRUCTURE SUMMARY:
Info: 49394 ATOMS
Info: 49448 BONDS
Info: 8698 ANGLES
Info: 18780 DIHEDRALS
Info: 0 IMPROPERS
Info: 0 CROSSTERMS
Info: 0 EXCLUSIONS
Info: 2336 CONSTRAINTS
Info: 44667 RIGID BONDS
Info: 103515 DEGREES OF FREEDOM
Info: 17225 HYDROGEN GROUPS
Info: 4 ATOMS IN LARGEST HYDROGEN GROUP
Info: 17225 MIGRATION GROUPS
Info: 4 ATOMS IN LARGEST MIGRATION GROUP
Info: TOTAL MASS = 301478 amu
Info: TOTAL CHARGE = 1.00115e-05 e
Info: MASS DENSITY = 0.935846 g/cm^3
Info: ATOM DENSITY = 0.0923345 atoms/A^3
Info: ADDED 70656 IMPLICIT EXCLUSIONS
Info: NONBONDED TABLE R-SQUARED SPACING: 0.0625
Info: NONBONDED TABLE SIZE: 769 POINTS
Info: REMOVING COM VELOCITY -0.00473116 0.0224032 -0.0278358
TCL: Running for 5000 steps
ETITLE: TS BOND ANGLE DIHED IMPRP ELECT VDW BOUNDARY MISC KINETIC TOTAL TEMP POTENTIAL TOTAL3 TEMPAVG PRESSURE GPRESSURE VOLUME PRESSAVG GPRESSAVG
ENERGY: 0 407.4779 1206.5259 2921.5156 0.0000 -212702.4629 29590.4177 0.0000 0.0000 10040.8199 -168535.7059 97.6239 -178576.5258 -168525.9431 97.6239 -2348.1387 -2450.4581 534946.2959 -2348.1387 -2450.4581
ENERGY: 1000 1256.3022 1945.7064 3121.8247 0.0000 -193446.0976 26509.7878 799.5061 0.0000 24188.5159 -135624.4545 235.1778 -159812.9704 -135600.7384 219.6484 -20.6496 -16.7283 523142.3362 -9.4816 -9.6989
ENERGY: 2000 1467.2091 2149.3578 3132.3507 0.0000 -183829.1280 23004.8741 797.5416 0.0000 28020.7775 -125257.0172 272.4377 -153277.7946 -125227.7246 264.8521 -25.7085 -29.3794 516355.4048 -21.1660 -21.1946
ENERGY: 3000 1578.2114 2211.0141 3138.3190 0.0000 -178451.8075 21373.4072 791.7879 0.0000 29644.8781 -119714.1899 288.2284 -149359.0680 -119668.0716 285.6178 62.5915 22.9068 510116.6026 -21.0929 -20.9204
ENERGY: 4000 1523.3143 2318.4434 3138.0686 0.0000 -176865.9219 20653.7584 803.9805 0.0000 30446.9448 -117981.4119 296.0267 -148428.3567 -117931.6078 294.1838 -73.8930 4.5599 506162.6308 -19.3337 -18.6562
ENERGY: 5000 1647.5081 2273.4719 3157.4059 0.0000 -175828.5764 20384.5820 811.5406 0.0000 30664.2206 -116889.8474 298.1392 -147554.0679 -116833.9157 297.3852 -38.2661 -25.6005 504139.5668 -18.0867 -18.3751
TCL: Setting parameter constraintScaling to 5.0
TCL: Running for 5000 steps
ETITLE: TS BOND ANGLE DIHED IMPRP ELECT VDW BOUNDARY MISC KINETIC TOTAL TEMP POTENTIAL TOTAL3 TEMPAVG PRESSURE GPRESSURE VOLUME PRESSAVG GPRESSAVG
ENERGY: 5000 1647.5081 2273.4719 3157.4059 0.0000 -175828.5764 20384.5820 405.7703 0.0000 30662.1796 -117297.6587 298.1193 -147959.8382 -117256.0379 298.1193 -96.1006 -64.3933 504139.5668 -96.1006 -64.3933
ENERGY: 6000 1605.3305 2318.0643 3172.7049 0.0000 -175475.2561 20112.9317 641.7205 0.0000 30720.3659 -116904.1384 298.6850 -147624.5043 -116863.2725 299.1064 -136.3179 -58.3851 504492.5924 2.0789 2.4215
ENERGY: 7000 1620.0291 2345.0209 3165.8346 0.0000 -175527.4936 20030.6992 637.8931 0.0000 30755.4861 -116972.5306 299.0265 -147728.0167 -116928.7029 299.0331 43.7501 20.7271 502520.4592 -1.6644 -1.6809
ENERGY: 8000 1670.7630 2284.8520 3130.1549 0.0000 -175474.5236 20194.9443 635.8747 0.0000 30764.1401 -116793.7946 299.1107 -147557.9347 -116745.1507 299.5757 17.2328 -17.7280 502290.8426 6.8931 7.2201
ENERGY: 9000 1628.4684 2256.1375 3131.5893 0.0000 -176279.6818 20538.5194 651.2039 0.0000 30808.0054 -117265.7578 299.5371 -148073.7632 -117214.8998 298.4158 -20.0366 -13.5733 501220.1802 1.4374 1.3044
ENERGY: 10000 1613.2580 2298.4699 3164.0883 0.0000 -175972.0573 20222.6432 664.0403 0.0000 30764.0700 -117245.4876 299.1100 -148009.5576 -117198.6514 298.5789 -7.7560 -9.6446 500052.1310 -12.3643 -12.0945
TCL: Setting parameter constraintScaling to 2.5
TCL: Running for 5000 steps
ETITLE: TS BOND ANGLE DIHED IMPRP ELECT VDW BOUNDARY MISC KINETIC TOTAL TEMP POTENTIAL TOTAL3 TEMPAVG PRESSURE GPRESSURE VOLUME PRESSAVG GPRESSAVG
ENERGY: 10000 1613.2580 2298.4699 3164.0883 0.0000 -175972.0573 20222.6432 332.0202 0.0000 30761.9807 -117579.5971 299.0897 -148341.5777 -117534.6168 299.0897 -63.4211 -53.5054 500052.1310 -63.4211 -53.5054
ENERGY: 11000 1619.0811 2376.8108 3207.3177 0.0000 -175904.3335 20335.3602 517.4412 0.0000 30795.9039 -117052.4186 299.4195 -147848.3225 -117017.3928 298.3546 22.3713 35.9072 501749.2093 -4.6287 -3.9805
ENERGY: 12000 1597.3684 2300.5797 3158.6837 0.0000 -175900.4543 20329.4842 521.3873 0.0000 30858.7426 -117134.2083 300.0304 -147992.9509 -117090.9300 299.2536 -68.4538 45.7793 501047.6624 -4.4193 -4.1522
ENERGY: 13000 1684.6898 2384.0358 3173.4904 0.0000 -176332.3489 20373.2241 505.3855 0.0000 30847.9911 -117363.5322 299.9259 -148211.5232 -117325.1976 299.1747 -86.1682 -0.6405 500646.8600 4.4969 4.5294
ENERGY: 14000 1621.2985 2404.9324 3171.2427 0.0000 -175905.3550 20222.2280 487.0189 0.0000 30642.0238 -117356.6106 297.9234 -147998.6344 -117316.3849 298.7690 64.5876 31.9878 500395.1038 -6.6470 -6.1803
ENERGY: 15000 1666.6459 2316.3210 3166.9516 0.0000 -175746.2450 19955.9034 496.4464 0.0000 30874.0077 -117269.9690 300.1789 -148143.9767 -117222.5552 299.5018 39.0375 -17.2493 500580.6964 6.9942 7.5958
TCL: Setting parameter constraintScaling to 1.25
TCL: Running for 5000 steps
ETITLE: TS BOND ANGLE DIHED IMPRP ELECT VDW BOUNDARY MISC KINETIC TOTAL TEMP POTENTIAL TOTAL3 TEMPAVG PRESSURE GPRESSURE VOLUME PRESSAVG GPRESSAVG
ENERGY: 15000 1666.6459 2316.3210 3166.9516 0.0000 -175746.2450 19955.9034 248.2232 0.0000 30871.9675 -117520.2324 300.1590 -148392.1999 -117478.5102 300.1590 -34.7456 -94.1147 500580.6964 -34.7456 -94.1147
ENERGY: 16000 1629.8450 2384.8757 3196.4849 0.0000 -175573.8777 20013.0506 402.3739 0.0000 30876.2820 -117070.9655 300.2010 -147947.2475 -117014.6816 300.1055 85.4901 61.7744 499039.6296 0.9147 0.7536
ENERGY: 17000 1609.7776 2389.0831 3176.1730 0.0000 -175303.0577 19851.2782 421.9777 0.0000 30721.5391 -117133.2291 298.6965 -147854.7682 -117089.4104 300.7741 39.3188 71.7931 500192.2114 4.1437 4.1530
ENERGY: 18000 1624.7971 2307.5294 3179.4977 0.0000 -175592.2052 20040.4775 389.6653 0.0000 30736.0836 -117314.1545 298.8379 -148050.2381 -117281.9725 300.3432 -64.0053 5.1059 499346.9477 -5.4071 -5.3383
ENERGY: 19000 1643.2242 2335.6417 3141.0606 0.0000 -175817.1773 20018.2800 393.2973 0.0000 30746.1996 -117539.4739 298.9362 -148285.6735 -117496.9560 299.4257 -100.2294 -51.0551 498152.6067 -11.1859 -11.5711
ENERGY: 20000 1597.1604 2390.1273 3148.8214 0.0000 -176255.2654 20198.3536 380.7911 0.0000 30762.3334 -117777.6782 299.0931 -148540.0115 -117739.6115 297.9605 9.7777 -53.6337 498427.4470 -8.6853 -9.1537
TCL: Setting parameter constraintScaling to 0.625
TCL: Running for 5000 steps
ETITLE: TS BOND ANGLE DIHED IMPRP ELECT VDW BOUNDARY MISC KINETIC TOTAL TEMP POTENTIAL TOTAL3 TEMPAVG PRESSURE GPRESSURE VOLUME PRESSAVG GPRESSAVG
ENERGY: 20000 1597.1604 2390.1273 3148.8214 0.0000 -176255.2654 20198.3536 190.3955 0.0000 30760.3013 -117970.1057 299.0733 -148730.4071 -117927.3131 299.0733 -1.9962 -67.8869 498427.4470 -1.9962 -67.8869
ENERGY: 21000 1639.2948 2431.7294 3221.1258 0.0000 -175632.3124 19966.1779 306.4094 0.0000 30857.5948 -117209.9803 300.0193 -148067.5751 -117161.3311 298.9991 5.3108 51.9222 499205.8988 -0.1710 -0.1991
ENERGY: 22000 1634.1619 2424.5030 3218.9915 0.0000 -175682.2749 20015.8933 329.6901 0.0000 30841.9796 -117217.0556 299.8675 -148059.0352 -117184.9795 300.2641 -35.4536 -22.4682 497652.7941 -17.1566 -17.3981
ENERGY: 23000 1619.5396 2474.3913 3176.0155 0.0000 -175735.4360 20088.4428 322.2804 0.0000 30705.1683 -117349.5981 298.5373 -148054.7664 -117293.0550 298.7569 85.2388 65.6273 497448.3649 -8.1204 -8.2283
ENERGY: 24000 1651.9816 2449.9379 3222.9943 0.0000 -175994.4234 20190.8167 311.4598 0.0000 30787.1490 -117380.0841 299.3344 -148167.2331 -117343.3573 299.7864 39.1512 16.2995 498021.4374 5.1826 5.4771
ENERGY: 25000 1677.6012 2443.5269 3220.4436 0.0000 -175918.7691 20158.8191 315.5310 0.0000 30858.6215 -117244.2258 300.0293 -148102.8473 -117186.8200 300.4066 82.3162 -21.4690 496700.8287 2.6015 2.4515
TCL: Setting parameter constraintScaling to 0.3125
TCL: Running for 5000 steps
ETITLE: TS BOND ANGLE DIHED IMPRP ELECT VDW BOUNDARY MISC KINETIC TOTAL TEMP POTENTIAL TOTAL3 TEMPAVG PRESSURE GPRESSURE VOLUME PRESSAVG GPRESSAVG
ENERGY: 25000 1677.6012 2443.5269 3220.4436 0.0000 -175918.7691 20158.8191 157.7655 0.0000 30856.5604 -117404.0524 300.0092 -148260.6128 -117359.5064 300.0092 74.6096 -30.6234 496700.8287 74.6096 -30.6234
ENERGY: 26000 1643.4116 2425.8905 3197.1873 0.0000 -175657.5615 20003.1957 226.7409 0.0000 30781.2456 -117379.8897 299.2770 -148161.1354 -117335.7720 300.2412 -44.5964 36.6100 496976.5844 -9.2043 -8.7147
ENERGY: 27000 1676.1727 2400.1197 3199.5332 0.0000 -175707.3254 20007.9910 255.6968 0.0000 30727.5395 -117440.2725 298.7548 -148167.8121 -117392.3962 298.7695 -5.4711 -66.0470 498128.1726 13.7937 13.6228
ENERGY: 28000 1630.3497 2410.3561 3179.1004 0.0000 -175684.6317 20092.7891 246.1736 0.0000 30845.7745 -117280.0883 299.9044 -148125.8628 -117230.6050 299.9421 -2.6254 21.8573 497608.2387 -6.3055 -5.9052
ENERGY: 29000 1599.0395 2390.7780 3210.7692 0.0000 -175723.3282 20043.8485 253.3972 0.0000 30881.0486 -117344.4472 300.2473 -148225.4958 -117288.5007 299.8362 20.8956 62.1547 496955.2668 -12.2048 -11.9968
ENERGY: 30000 1634.7093 2360.6833 3192.6611 0.0000 -175690.4411 19944.8385 257.2099 0.0000 30512.1867 -117788.1524 296.6610 -148300.3391 -117754.5916 299.3534 6.2554 -4.3080 497983.2035 8.2937 9.0896
TCL: Setting parameter constraintScaling to 0.15625
TCL: Running for 5000 steps
ETITLE: TS BOND ANGLE DIHED IMPRP ELECT VDW BOUNDARY MISC KINETIC TOTAL TEMP POTENTIAL TOTAL3 TEMPAVG PRESSURE GPRESSURE VOLUME PRESSAVG GPRESSAVG
ENERGY: 30000 1634.7093 2360.6833 3192.6611 0.0000 -175690.4411 19944.8385 128.6049 0.0000 30510.1267 -117918.8173 296.6410 -148428.9440 -117877.3975 296.6410 -30.8129 -43.6820 497983.2035 -30.8129 -43.6820
ENERGY: 31000 1642.5899 2397.0077 3210.9427 0.0000 -175627.2397 19884.1654 196.8577 0.0000 30616.8391 -117678.8372 297.6785 -148295.6763 -117629.5125 299.4340 -18.6475 -74.6042 498041.1226 6.3362 5.7113
ENERGY: 32000 1682.6336 2394.4833 3206.0384 0.0000 -175633.5578 19888.2097 206.4277 0.0000 30965.0669 -117290.6981 301.0642 -148255.7650 -117244.4065 299.7180 -53.4998 -2.4837 496718.6178 -10.5702 -10.6436
ENERGY: 33000 1647.8894 2404.3324 3192.8367 0.0000 -175874.7959 20165.0673 198.2238 0.0000 30917.2430 -117349.2034 300.5992 -148266.4463 -117306.2722 300.4939 -115.4835 29.7775 497410.1955 -5.3505 -5.0609
ENERGY: 34000 1608.7467 2384.4090 3215.4569 0.0000 -176348.7251 20350.5600 213.1384 0.0000 31077.4910 -117498.9231 302.1573 -148576.4141 -117458.3877 299.6848 22.9759 45.7475 497969.0187 -1.1947 -1.2998
ENERGY: 35000 1586.2248 2416.5329 3189.0157 0.0000 -176088.2855 20267.6367 209.3308 0.0000 30888.9256 -117530.6190 300.3239 -148419.5446 -117478.4453 299.9615 -34.0621 51.7082 497901.6978 3.9584 4.3714
TCL: Setting parameter constraintScaling to 0.078125
TCL: Running for 5000 steps
ETITLE: TS BOND ANGLE DIHED IMPRP ELECT VDW BOUNDARY MISC KINETIC TOTAL TEMP POTENTIAL TOTAL3 TEMPAVG PRESSURE GPRESSURE VOLUME PRESSAVG GPRESSAVG
ENERGY: 35000 1586.2248 2416.5329 3189.0157 0.0000 -176088.2855 20267.6367 104.6654 0.0000 30886.8812 -117637.3289 300.3040 -148524.2101 -117597.4239 300.3040 -20.0946 62.4597 497901.6978 -20.0946 62.4597
ENERGY: 36000 1651.8937 2409.4299 3246.5704 0.0000 -175694.0623 20018.4381 160.8003 0.0000 30912.6564 -117294.2736 300.5546 -148206.9299 -117239.8176 300.5815 -61.2083 29.7369 497954.5174 5.8461 5.8874
ENERGY: 37000 1644.7208 2375.6494 3239.4864 0.0000 -175482.5232 19852.4256 167.1511 0.0000 30756.9803 -117446.1097 299.0410 -148203.0900 -117401.2093 300.0088 54.0865 73.8233 496180.3481 -7.1628 -6.6854
ENERGY: 38000 1661.5813 2396.5824 3183.8245 0.0000 -175851.5689 20113.0945 172.5103 0.0000 30843.9617 -117480.0143 299.8867 -148323.9760 -117440.2343 300.9422 -49.8887 0.3513 497108.4554 2.7344 2.9262
ENERGY: 39000 1657.6041 2419.4811 3173.8077 0.0000 -175891.0304 20106.5469 163.5106 0.0000 30856.6742 -117513.4059 300.0103 -148370.0801 -117472.9764 299.5294 -7.9688 -46.1313 496942.1237 2.2097 1.9378
ENERGY: 40000 1638.0730 2394.4460 3215.8373 0.0000 -175841.4749 20007.3838 175.8696 0.0000 30699.6527 -117710.2125 298.4837 -148409.8652 -117661.6248 298.9690 2.8075 -16.1262 496648.0513 -1.6716 -1.2706
TCL: Setting parameter constraintScaling to 0.0390625
TCL: Running for 5000 steps
ETITLE: TS BOND ANGLE DIHED IMPRP ELECT VDW BOUNDARY MISC KINETIC TOTAL TEMP POTENTIAL TOTAL3 TEMPAVG PRESSURE GPRESSURE VOLUME PRESSAVG GPRESSAVG
ENERGY: 40000 1638.0730 2394.4460 3215.8373 0.0000 -175841.4749 20007.3838 87.9348 0.0000 30697.5774 -117800.2226 298.4635 -148497.8000 -117756.9170 298.4635 -10.4193 -30.4711 496648.0513 -10.4193 -30.4711
ENERGY: 41000 1672.6331 2429.2867 3192.0372 0.0000 -175928.4692 20069.8462 120.4668 0.0000 30955.3840 -117488.8152 300.9701 -148444.1992 -117445.3250 300.7265 -78.3781 -46.7753 495799.3495 -13.3941 -12.8594
ENERGY: 42000 1632.4767 2372.5319 3233.7917 0.0000 -175745.2911 19893.7576 118.6637 0.0000 30743.4244 -117750.6451 298.9092 -148494.0695 -117715.6023 298.9362 6.9862 22.2653 496545.5401 14.3774 14.0558
ENERGY: 43000 1651.3664 2402.9037 3204.0906 0.0000 -175893.3506 20088.1567 129.3408 0.0000 31073.6331 -117343.8594 302.1198 -148417.4925 -117287.3155 299.4967 -38.7367 13.1634 496521.5163 1.5601 0.7130
ENERGY: 44000 1660.8260 2408.2302 3175.1178 0.0000 -176131.9761 20002.3400 136.4032 0.0000 30972.9983 -117776.0605 301.1413 -148749.0588 -117724.5952 299.3517 -2.8022 -56.4995 497590.3011 5.0953 4.2594
ENERGY: 45000 1639.7593 2368.9905 3220.0761 0.0000 -175988.5701 20155.3069 128.1559 0.0000 30833.9838 -117642.2975 299.7897 -148476.2814 -117598.3847 299.5081 56.3694 51.0809 497447.6848 2.2085 2.6206
TCL: Setting parameter constraintScaling to 0.01953125
TCL: Running for 5000 steps
ETITLE: TS BOND ANGLE DIHED IMPRP ELECT VDW BOUNDARY MISC KINETIC TOTAL TEMP POTENTIAL TOTAL3 TEMPAVG PRESSURE GPRESSURE VOLUME PRESSAVG GPRESSAVG
ENERGY: 45000 1639.7593 2368.9905 3220.0761 0.0000 -175988.5701 20155.3069 64.0779 0.0000 30831.9248 -117708.4345 299.7697 -148540.3593 -117664.7718 299.7697 38.7735 35.2568 497447.6848 38.7735 35.2568
ENERGY: 46000 1678.0126 2385.2370 3210.0096 0.0000 -176091.0288 20071.1155 76.4493 0.0000 30692.4388 -117977.7659 298.4135 -148670.2047 -117935.7435 299.8946 38.7882 71.0989 495479.1476 -5.2840 -4.7451
ENERGY: 47000 1602.9020 2412.4403 3190.0952 0.0000 -175970.8131 20077.8220 83.4960 0.0000 30855.8522 -117748.2054 300.0023 -148604.0576 -117699.7629 298.9910 -66.3180 -77.5787 495449.3486 -6.7325 -6.2559
ENERGY: 48000 1652.3731 2415.4652 3174.7012 0.0000 -175550.2733 20020.3371 85.3293 0.0000 30852.1800 -117349.8875 299.9666 -148202.0675 -117305.9155 300.7359 -2.7447 20.1668 496372.0884 5.2216 6.1762
ENERGY: 49000 1708.0425 2373.6365 3237.8913 0.0000 -176084.1261 20265.3434 91.3958 0.0000 30451.0213 -117956.7953 296.0663 -148407.8166 -117901.1559 298.8359 -92.3991 47.2170 496644.1817 4.7763 4.5909
ENERGY: 50000 1659.1818 2356.7661 3246.6603 0.0000 -175543.4323 19938.9446 85.7058 0.0000 30798.9471 -117457.2266 299.4491 -148256.1737 -117414.3891 299.6608 28.8551 -11.0047 496570.3033 -1.9890 -2.0513
TCL: Setting parameter constraintScaling to 0
TCL: Running for 5000 steps
ETITLE: TS BOND ANGLE DIHED IMPRP ELECT VDW BOUNDARY MISC KINETIC TOTAL TEMP POTENTIAL TOTAL3 TEMPAVG PRESSURE GPRESSURE VOLUME PRESSAVG GPRESSAVG
ENERGY: 50000 1659.1818 2356.7661 3246.6603 0.0000 -175543.4323 19938.9446 0.0000 0.0000 30796.8838 -117544.9957 299.4290 -148341.8795 -117501.6647 299.4290 17.2785 -22.5726 496570.3033 17.2785 -22.5726
ENERGY: 51000 1664.0516 2367.9310 3179.6610 0.0000 -175811.8898 19983.2677 0.0000 0.0000 30931.9476 -117685.0309 300.7422 -148616.9785 -117645.1109 299.8850 2.1480 -2.6623 497131.0604 2.9655 3.5908
ENERGY: 52000 1602.5743 2342.6406 3201.0315 0.0000 -175839.2742 19928.3964 0.0000 0.0000 30568.8548 -118195.7766 297.2119 -148764.6314 -118143.2088 298.5135 -108.3012 -30.7792 495503.2111 1.1778 1.0254
ENERGY: 53000 1600.8520 2410.9195 3254.4226 0.0000 -176177.4704 20142.7697 0.0000 0.0000 30570.7548 -118197.7519 297.2304 -148768.5067 -118156.4839 297.8971 17.3711 80.6971 496417.8885 0.9239 1.1274
ENERGY: 54000 1652.9848 2405.0275 3182.1512 0.0000 -176218.3715 20175.4151 0.0000 0.0000 30684.9301 -118117.8627 298.3405 -148802.7928 -118076.2046 298.3175 -42.7140 54.2775 496610.8195 4.0938 4.6956
ENERGY: 55000 1629.0951 2372.9947 3188.1844 0.0000 -176204.4334 20068.8592 0.0000 0.0000 30613.3753 -118331.9248 297.6448 -148945.3001 -118281.5382 298.3723 -79.9807 14.2149 496924.5798 2.3534 2.8198
