Info: SIMULATION PARAMETERS:
Info: TIMESTEP               1
Info: NUMBER OF STEPS        0
Info: STEPS PER CYCLE        10
Info: PERIODIC CELL BASIS 1  72.449 0 0
Info: PERIODIC CELL BASIS 2  0 93.247 0
Info: PERIODIC CELL BASIS 3  0 0 79.185
Info: PERIODIC CELL CENTER   -0.248 -0.156 -0.047
Info: WRAPPING WATERS AROUND PERIODIC BOUNDARIES ON OUTPUT.
Info: WRAPPING ALL CLUSTERS AROUND PERIODIC BOUNDARIES ON OUTPUT.
Info: FIRST LDB TIMESTEP     50
Info: LAST LDB TIMESTEP     -1
Info: HOM BACKGROUND SCALING 1
Info: PME BACKGROUND SCALING 1
Info: MIN ATOMS PER PATCH    40
Info: VELOCITY FILE          ../replicas/rep99/equilibration/eq1.vel
Info: CENTER OF MASS MOVING INITIALLY? NO
Info: DIELECTRIC             1
Info: EXCLUDE                SCALED ONE-FOUR
Info: 1-4 ELECTROSTATICS SCALED BY 0.833333
Info: MODIFIED 1-4 VDW PARAMETERS WILL BE USED
Info: DCD FILENAME           ../replicas/rep99/equilibration/eq2.dcd
Info: DCD FREQUENCY          5000
Info: DCD FIRST STEP         5000
Info: DCD FILE WILL CONTAIN UNIT CELL DATA
Info: XST FILENAME           ../replicas/rep99/equilibration/eq2.xst
Info: XST FREQUENCY          5000
Info: NO VELOCITY DCD OUTPUT
Info: NO FORCE DCD OUTPUT
Info: OUTPUT FILENAME        ../replicas/rep99/equilibration/eq2
Info: RESTART FILENAME       ../replicas/rep99/equilibration/eq2.restart
Info: RESTART FREQUENCY      5000
Info: BINARY RESTART FILES WILL BE USED
Info: SWITCHING ACTIVE
Info: SWITCHING ON           10
Info: SWITCHING OFF          12
Info: PAIRLIST DISTANCE      13.5
Info: PAIRLIST SHRINK RATE   0.01
Info: PAIRLIST GROW RATE     0.01
Info: PAIRLIST TRIGGER       0.3
Info: PAIRLISTS PER CYCLE    2
Info: PAIRLISTS ENABLED
Info: MARGIN                 0.48
Info: HYDROGEN GROUP CUTOFF  2.5
Info: PATCH DIMENSION        16.48
Info: ENERGY OUTPUT STEPS    500
Info: CROSSTERM ENERGY INCLUDED IN DIHEDRAL
Info: TIMING OUTPUT STEPS    5000
Info: PRESSURE OUTPUT STEPS  500
Info: HARMONIC CONSTRAINTS ACTIVE
Info: HARMONIC CONS EXP      2
Info: HARMONIC CONS SCALING  10
Info: LANGEVIN DYNAMICS ACTIVE
Info: LANGEVIN TEMPERATURE   300
Info: LANGEVIN USING BBK INTEGRATOR
Info: LANGEVIN DAMPING COEFFICIENT IS 5 INVERSE PS
Info: LANGEVIN DYNAMICS NOT APPLIED TO HYDROGENS
Info: BERENDSEN PRESSURE COUPLING ACTIVE
Info:     TARGET PRESSURE IS 1 BAR
Info:     COMPRESSIBILITY ESTIMATE IS 4.57e-05 BAR^(-1)
Info:     RELAXATION TIME IS 100 FS
Info:     APPLIED EVERY 2 STEPS
Info:     PRESSURE CONTROL IS GROUP-BASED
Info:       CELL FLUCTUATION IS ISOTROPIC
Info: PARTICLE MESH EWALD (PME) ACTIVE
Info: PME TOLERANCE               1e-06
Info: PME EWALD COEFFICIENT       0.257952
Info: PME INTERPOLATION ORDER     4
Info: PME GRID DIMENSIONS         80 96 80
Info: PME MAXIMUM GRID SPACING    1
Info: FULL ELECTROSTATIC EVALUATION FREQUENCY      2
Info: USING VERLET I (r-RESPA) MTS SCHEME.
Info: C1 SPLITTING OF LONG RANGE ELECTROSTATICS
Info: PLACING ATOMS IN PATCHES BY HYDROGEN GROUPS
Info: RIGID BONDS TO HYDROGEN : WATER
Info:         ERROR TOLERANCE : 1e-05
Info:          MAX ITERATIONS : 100
Info: RIGID WATER USING SETTLE ALGORITHM
Info: RANDOM NUMBER SEED     1503721131
Info: USE HYDROGEN BONDS?    NO
Info: Using AMBER format force field!
Info: AMBER PARM FILE        ../build/complex.top
Info: COORDINATE PDB         ../replicas/rep99/equilibration/eq1.coor
Info: Exclusions in PARM file will be ignored!
Info: SCNB (VDW SCALING)     2
Info: USING ARITHMETIC MEAN TO COMBINE L-J SIGMA PARAMETERS
Info: SUMMARY OF PARAMETERS:
Info: 71 BONDS
Info: 145 ANGLES
Info: 76 DIHEDRAL
Info: 0 IMPROPER
Info: 0 CROSSTERM
Info: 0 VDW
Info: 190 VDW_PAIRS
Info: 0 NBTHOLE_PAIRS
Info: STRUCTURE SUMMARY:
Info: 49394 ATOMS
Info: 49448 BONDS
Info: 8698 ANGLES
Info: 18780 DIHEDRALS
Info: 0 IMPROPERS
Info: 0 CROSSTERMS
Info: 0 EXCLUSIONS
Info: 2336 CONSTRAINTS
Info: 44667 RIGID BONDS
Info: 103515 DEGREES OF FREEDOM
Info: 17225 HYDROGEN GROUPS
Info: 4 ATOMS IN LARGEST HYDROGEN GROUP
Info: 17225 MIGRATION GROUPS
Info: 4 ATOMS IN LARGEST MIGRATION GROUP
Info: TOTAL MASS = 301478 amu
Info: TOTAL CHARGE = 1.00115e-05 e
Info: MASS DENSITY = 0.935846 g/cm^3
Info: ATOM DENSITY = 0.0923345 atoms/A^3
Info: ADDED 70656 IMPLICIT EXCLUSIONS
Info: NONBONDED TABLE R-SQUARED SPACING: 0.0625
Info: NONBONDED TABLE SIZE: 769 POINTS
Info: REMOVING COM VELOCITY 0.0366127 -0.00425654 -0.0122767
TCL: Running for 5000 steps
ETITLE: TS BOND ANGLE DIHED IMPRP ELECT VDW BOUNDARY MISC KINETIC TOTAL TEMP POTENTIAL TOTAL3 TEMPAVG PRESSURE GPRESSURE VOLUME PRESSAVG GPRESSAVG
ENERGY: 0 389.8134 1209.5025 2911.8970 0.0000 -212679.0354 29526.1737 0.0000 0.0000 9981.4794 -168660.1695 97.0470 -178641.6488 -168650.5334 97.0470 -2378.2715 -2477.3620 534946.2959 -2378.2715 -2477.3620
ENERGY: 1000 1199.6285 1971.2497 3109.8625 0.0000 -193968.1308 26870.8499 760.0876 0.0000 23957.5576 -136098.8949 232.9323 -160056.4526 -136072.4426 218.2546 -58.6534 -17.7618 523262.2046 -12.5314 -12.6600
ENERGY: 2000 1432.8030 2133.1480 3124.4400 0.0000 -184505.2984 23304.1399 772.5835 0.0000 27922.4601 -125815.7239 271.4818 -153738.1840 -125788.0194 263.2874 -30.7967 -10.8732 516634.0213 -28.7622 -28.7375
ENERGY: 3000 1572.2174 2171.7898 3173.9869 0.0000 -178934.7614 21399.5829 811.7167 0.0000 29444.1274 -120361.3403 286.2766 -149805.4678 -120314.7891 284.2925 -68.5000 -16.4554 510247.2109 -18.9737 -18.3565
ENERGY: 4000 1574.7641 2214.3297 3142.1440 0.0000 -176870.0513 20698.5170 796.7326 0.0000 30004.1874 -118439.3766 291.7219 -148443.5640 -118393.8489 292.2459 17.3589 -16.9091 505669.8275 -19.2480 -19.3874
ENERGY: 5000 1592.2983 2210.1420 3143.3035 0.0000 -176846.2065 21037.1022 798.8311 0.0000 30377.6005 -117686.9289 295.3524 -148064.5294 -117627.8033 295.1050 15.7299 13.9666 504302.8663 -12.5772 -12.4648
TCL: Setting parameter constraintScaling to 5.0
TCL: Running for 5000 steps
ETITLE: TS BOND ANGLE DIHED IMPRP ELECT VDW BOUNDARY MISC KINETIC TOTAL TEMP POTENTIAL TOTAL3 TEMPAVG PRESSURE GPRESSURE VOLUME PRESSAVG GPRESSAVG
ENERGY: 5000 1592.2983 2210.1420 3143.3035 0.0000 -176846.2066 21037.1022 399.4156 0.0000 30375.5547 -118088.3903 295.3325 -148463.9450 -118045.2608 295.3325 92.0867 89.3671 504302.8663 92.0867 89.3671
ENERGY: 6000 1631.4243 2319.1698 3172.8654 0.0000 -175655.4463 20209.9463 631.4575 0.0000 30728.0385 -116962.5445 298.7596 -147690.5830 -116926.6455 298.1286 8.0708 -10.1105 505263.4193 7.1194 6.8325
ENERGY: 7000 1611.8302 2261.8734 3185.5610 0.0000 -175515.9326 20100.5639 667.7098 0.0000 30740.2576 -116948.1368 298.8784 -147688.3944 -116900.7973 298.2905 -27.1803 -27.9851 503390.8023 -17.3719 -17.6733
ENERGY: 8000 1585.9745 2369.9599 3130.9040 0.0000 -175416.8819 20103.3401 667.3359 0.0000 30725.9350 -116833.4325 298.7392 -147559.3675 -116794.6807 299.7278 -45.5986 28.6521 502948.4960 8.0679 8.0591
ENERGY: 9000 1558.0103 2311.5900 3157.3664 0.0000 -175587.2657 20184.6140 654.0604 0.0000 30988.4700 -116733.1546 301.2917 -147721.6245 -116690.1479 300.1278 47.2319 25.1408 501322.2352 3.2836 3.7178
ENERGY: 10000 1663.2371 2345.0450 3179.9796 0.0000 -175373.4356 19909.5148 650.0532 0.0000 30951.7061 -116673.8999 300.9343 -147625.6060 -116635.4632 300.9547 18.2299 79.0771 499041.3565 -5.8433 -6.3043
TCL: Setting parameter constraintScaling to 2.5
TCL: Running for 5000 steps
ETITLE: TS BOND ANGLE DIHED IMPRP ELECT VDW BOUNDARY MISC KINETIC TOTAL TEMP POTENTIAL TOTAL3 TEMPAVG PRESSURE GPRESSURE VOLUME PRESSAVG GPRESSAVG
ENERGY: 10000 1663.2371 2345.0450 3179.9796 0.0000 -175373.4356 19909.5148 325.0266 0.0000 30949.6551 -117000.9775 300.9144 -147950.6326 -116960.7770 300.9144 -92.8700 -35.4863 499041.3565 -92.8700 -35.4863
ENERGY: 11000 1605.7989 2387.0346 3171.3270 0.0000 -175526.9307 19802.8329 486.7375 0.0000 30906.5522 -117166.6477 300.4953 -148073.1999 -117121.1777 300.0773 134.0700 38.5021 498701.4673 -6.7082 -7.0319
ENERGY: 12000 1614.2951 2386.2806 3185.2011 0.0000 -175066.5705 19716.6354 522.6219 0.0000 30855.0006 -116786.5357 299.9941 -147641.5363 -116745.1379 299.9871 132.8793 -26.9659 498930.6914 5.6158 5.5749
ENERGY: 13000 1660.0499 2363.4070 3176.9781 0.0000 -175948.4512 20175.4489 521.2682 0.0000 30613.6088 -117437.6904 297.6471 -148051.2992 -117384.1408 298.2905 -10.6783 -52.2894 499469.4810 1.3981 1.7245
ENERGY: 14000 1603.7561 2322.1977 3175.8318 0.0000 -175818.3049 20206.5166 520.1271 0.0000 30814.8919 -117174.9836 299.6041 -147989.8756 -117119.2100 299.0415 -117.1160 8.8416 498975.7439 -7.4534 -8.0254
ENERGY: 15000 1594.3118 2395.9729 3190.4463 0.0000 -175771.7111 20021.5792 518.0401 0.0000 30678.6984 -117372.6624 298.2799 -148051.3608 -117330.0987 298.6233 29.2306 -11.0466 499721.6040 4.7171 5.2670
TCL: Setting parameter constraintScaling to 1.25
TCL: Running for 5000 steps
ETITLE: TS BOND ANGLE DIHED IMPRP ELECT VDW BOUNDARY MISC KINETIC TOTAL TEMP POTENTIAL TOTAL3 TEMPAVG PRESSURE GPRESSURE VOLUME PRESSAVG GPRESSAVG
ENERGY: 15000 1594.3118 2395.9729 3190.4463 0.0000 -175771.7111 20021.5792 259.0201 0.0000 30676.6761 -117633.7047 298.2603 -148310.3808 -117589.5919 298.2603 -64.8660 -112.8157 499721.6040 -64.8660 -112.8157
ENERGY: 16000 1610.2744 2415.2102 3184.6337 0.0000 -175546.9901 19996.0411 405.0793 0.0000 30729.9508 -117205.8005 298.7782 -147935.7513 -117164.8285 298.9670 -68.3164 39.7797 497064.5231 -3.5544 -3.0274
ENERGY: 17000 1619.3544 2320.5192 3202.7077 0.0000 -175679.0401 20025.3704 396.5272 0.0000 31068.2798 -117046.2814 302.0677 -148114.5612 -116995.1238 300.3567 -14.9553 16.1425 498314.0847 2.7313 2.9536
ENERGY: 18000 1654.2645 2374.3162 3174.3456 0.0000 -175763.0023 19999.1535 399.1088 0.0000 30852.0107 -117309.8031 299.9650 -148161.8139 -117273.4561 300.0079 -127.5698 -68.8047 498875.9334 8.3280 8.8751
ENERGY: 19000 1653.9244 2305.9029 3173.6534 0.0000 -175727.6793 20110.0064 374.0202 0.0000 30940.2296 -117169.9424 300.8227 -148110.1719 -117130.6962 300.2654 -31.6394 30.9747 499476.3599 -3.8119 -3.9406
ENERGY: 20000 1633.8611 2387.0516 3195.3894 0.0000 -175256.5051 19889.6334 412.3890 0.0000 30916.9162 -116821.2645 300.5960 -147738.1806 -116781.3486 300.5599 79.6750 58.7981 499417.8880 5.2237 5.7923
TCL: Setting parameter constraintScaling to 0.625
TCL: Running for 5000 steps
ETITLE: TS BOND ANGLE DIHED IMPRP ELECT VDW BOUNDARY MISC KINETIC TOTAL TEMP POTENTIAL TOTAL3 TEMPAVG PRESSURE GPRESSURE VOLUME PRESSAVG GPRESSAVG
ENERGY: 20000 1633.8611 2387.0516 3195.3894 0.0000 -175256.5051 19889.6334 206.1945 0.0000 30914.8750 -117029.5002 300.5762 -147944.3751 -116985.7876 300.5762 77.1302 57.0858 499417.8880 77.1302 57.0858
ENERGY: 21000 1630.0885 2396.1409 3171.4745 0.0000 -175473.4328 19989.2067 294.3725 0.0000 31044.6057 -116947.5441 301.8375 -147992.1498 -116892.5591 299.9977 -11.6113 49.3629 497561.9695 -11.0617 -10.9703
ENERGY: 22000 1602.6809 2403.9054 3233.9982 0.0000 -176036.5830 20062.2797 316.9184 0.0000 30942.6703 -117474.1302 300.8464 -148416.8004 -117426.6551 299.8350 27.7691 51.8284 496538.3620 -12.8782 -13.0128
ENERGY: 23000 1629.0592 2375.5008 3208.1129 0.0000 -175613.2438 19868.5630 302.8512 0.0000 30723.7050 -117505.4517 298.7175 -148229.1567 -117470.1347 300.2399 -50.5760 -42.4757 496611.4945 1.0565 1.2186
ENERGY: 24000 1645.4125 2396.0763 3240.5666 0.0000 -176081.8486 20230.4147 333.3011 0.0000 31115.5378 -117120.5397 302.5272 -148236.0775 -117070.8061 300.1758 -136.8386 -92.4615 497471.3040 11.4591 11.8819
ENERGY: 25000 1686.3993 2304.0091 3189.0556 0.0000 -175652.1494 20182.1699 310.7005 0.0000 30827.8007 -117152.0142 299.7296 -147979.8149 -117114.2409 300.6731 -15.5098 46.2244 497362.5762 -0.2783 0.3663
TCL: Setting parameter constraintScaling to 0.3125
TCL: Running for 5000 steps
ETITLE: TS BOND ANGLE DIHED IMPRP ELECT VDW BOUNDARY MISC KINETIC TOTAL TEMP POTENTIAL TOTAL3 TEMPAVG PRESSURE GPRESSURE VOLUME PRESSAVG GPRESSAVG
ENERGY: 25000 1686.3993 2304.0091 3189.0556 0.0000 -175652.1494 20182.1699 155.3503 0.0000 30825.7552 -117309.4100 299.7097 -148135.1652 -117267.7122 299.7097 20.1526 73.4822 497362.5762 20.1526 73.4822
ENERGY: 26000 1661.1788 2390.5031 3161.7243 0.0000 -175514.8911 19854.1199 229.3869 0.0000 30983.4173 -117234.5609 301.2426 -148217.9781 -117182.6404 300.1335 62.2121 -0.7950 497163.0763 4.5930 4.6053
ENERGY: 27000 1700.3875 2373.3789 3224.3941 0.0000 -175704.3075 20012.0719 250.6214 0.0000 30781.5414 -117361.9123 299.2798 -148143.4537 -117307.3824 300.3152 -129.1579 -34.8799 495785.7974 -1.9404 -1.6707
ENERGY: 28000 1618.2521 2418.6639 3225.8472 0.0000 -176034.3102 20187.2743 267.1486 0.0000 30909.7357 -117407.3885 300.5262 -148317.1242 -117365.2713 300.3764 -149.3889 -28.6123 496815.7382 3.0671 2.8259
ENERGY: 29000 1675.8270 2398.5733 3190.9737 0.0000 -176156.5046 20211.0079 262.4572 0.0000 30829.2219 -117588.4437 299.7434 -148417.6656 -117541.1809 299.3604 -59.3594 25.0097 496926.6497 6.3526 6.6734
ENERGY: 30000 1643.1852 2427.2683 3173.7613 0.0000 -175776.9127 19929.9559 275.1826 0.0000 30711.8761 -117615.6833 298.6025 -148327.5594 -117568.6703 299.3647 -85.7059 0.4076 496527.6737 -12.3333 -11.7914
TCL: Setting parameter constraintScaling to 0.15625
TCL: Running for 5000 steps
ETITLE: TS BOND ANGLE DIHED IMPRP ELECT VDW BOUNDARY MISC KINETIC TOTAL TEMP POTENTIAL TOTAL3 TEMPAVG PRESSURE GPRESSURE VOLUME PRESSAVG GPRESSAVG
ENERGY: 30000 1643.1852 2427.2683 3173.7613 0.0000 -175776.9127 19929.9559 137.5913 0.0000 30709.8276 -117755.3231 298.5826 -148465.1507 -117713.5117 298.5826 -111.7013 -21.5168 496527.6737 -111.7013 -21.5168
ENERGY: 31000 1564.9979 2419.5402 3209.3316 0.0000 -176243.5849 20309.0101 191.8026 0.0000 30925.8481 -117623.0543 300.6829 -148548.9024 -117587.1101 299.3176 93.6753 91.7144 497042.1470 10.2081 9.7247
ENERGY: 32000 1639.7203 2371.8372 3213.6360 0.0000 -175695.4619 19942.3681 218.1481 0.0000 30656.9562 -117652.7960 298.0685 -148309.7522 -117612.0231 298.5889 -79.7886 -153.9708 497294.6512 -9.4605 -8.6710
ENERGY: 33000 1632.6089 2397.1505 3187.0466 0.0000 -175378.5916 19911.2163 227.5083 0.0000 30493.8047 -117529.2563 296.4823 -148023.0610 -117483.6811 299.5228 -33.2012 28.6103 498428.6627 4.4810 4.3629
ENERGY: 34000 1677.8429 2372.5976 3201.7405 0.0000 -176098.6772 20144.5972 220.1124 0.0000 30665.3049 -117816.4817 298.1497 -148481.7866 -117770.7026 298.7597 -44.6131 -32.4826 497685.7599 -1.6332 -2.1162
ENERGY: 35000 1554.0774 2399.6219 3194.0332 0.0000 -176436.9391 20393.3168 216.6473 0.0000 30714.7646 -117964.4779 298.6306 -148679.2425 -117920.7191 298.5334 42.5851 94.8363 498784.2313 3.0297 3.0710
TCL: Setting parameter constraintScaling to 0.078125
TCL: Running for 5000 steps
ETITLE: TS BOND ANGLE DIHED IMPRP ELECT VDW BOUNDARY MISC KINETIC TOTAL TEMP POTENTIAL TOTAL3 TEMPAVG PRESSURE GPRESSURE VOLUME PRESSAVG GPRESSAVG
ENERGY: 35000 1554.0774 2399.6219 3194.0332 0.0000 -176436.9391 20393.3168 108.3236 0.0000 30712.7540 -118074.8121 298.6110 -148787.5662 -118031.4950 298.6110 32.1642 86.8833 498784.2313 32.1642 86.8833
ENERGY: 36000 1534.7344 2436.0803 3221.9191 0.0000 -175792.6689 19911.0697 155.2828 0.0000 30730.4176 -117803.1649 298.7828 -148533.5825 -117751.4003 299.4368 -89.2918 -8.1669 496804.8222 -14.1976 -14.4421
ENERGY: 37000 1645.1448 2383.7281 3227.5662 0.0000 -175781.4713 19987.2979 160.9912 0.0000 30793.4164 -117583.3267 299.3953 -148376.7431 -117534.5493 299.8698 -31.6819 5.3623 497329.1637 7.2624 7.1500
ENERGY: 38000 1612.2867 2357.3276 3221.5075 0.0000 -175643.4500 19944.8505 165.4751 0.0000 30848.0463 -117493.9565 299.9264 -148342.0027 -117451.4819 299.3957 -101.4676 -22.1786 495085.2349 -11.5279 -11.1964
ENERGY: 39000 1656.7316 2397.6777 3230.4406 0.0000 -175418.4757 19762.4827 155.2327 0.0000 30766.6138 -117449.2966 299.1347 -148215.9104 -117405.0959 300.5793 -21.0351 -4.0332 495931.1134 10.5772 10.3345
ENERGY: 40000 1630.9007 2475.3085 3182.6185 0.0000 -175893.7711 20165.6757 154.0491 0.0000 30535.6191 -117749.5994 296.8888 -148285.2185 -117719.0319 299.4108 -58.2066 7.2531 495948.6835 1.5298 1.2377
TCL: Setting parameter constraintScaling to 0.0390625
TCL: Running for 5000 steps
ETITLE: TS BOND ANGLE DIHED IMPRP ELECT VDW BOUNDARY MISC KINETIC TOTAL TEMP POTENTIAL TOTAL3 TEMPAVG PRESSURE GPRESSURE VOLUME PRESSAVG GPRESSAVG
ENERGY: 40000 1630.9007 2475.3085 3182.6185 0.0000 -175893.7711 20165.6757 77.0246 0.0000 30533.5539 -117828.6891 296.8687 -148362.2431 -117786.2289 296.8687 -70.1258 3.4927 495948.6835 -70.1258 3.4927
ENERGY: 41000 1649.8776 2393.1432 3198.3309 0.0000 -175875.0878 20133.0291 108.2659 0.0000 30727.5559 -117664.8853 298.7550 -148392.4412 -117619.2380 299.6870 -57.8640 -45.3483 497680.9569 10.9482 11.3282
ENERGY: 42000 1636.0995 2476.3412 3176.8756 0.0000 -175592.1301 19798.5028 116.5465 0.0000 30877.1256 -117510.6390 300.2092 -148387.7646 -117464.6078 300.7240 -85.9449 -64.8051 495738.7870 -12.2658 -12.1543
ENERGY: 43000 1669.7217 2355.7789 3196.4706 0.0000 -175953.4469 20074.2387 117.1115 0.0000 30870.6031 -117669.5225 300.1458 -148540.1256 -117625.1170 300.2004 -28.6966 6.5935 496418.1082 1.3626 0.7987
ENERGY: 44000 1641.0214 2394.4833 3206.0661 0.0000 -176101.6826 20207.8009 136.1108 0.0000 30803.8615 -117712.3384 299.4969 -148516.1999 -117665.1678 300.3627 -32.1207 26.0979 497620.0176 1.7983 1.5572
ENERGY: 45000 1654.1155 2396.8528 3176.5344 0.0000 -175697.8561 20100.1751 134.6853 0.0000 30850.8913 -117384.6017 299.9541 -148235.4930 -117337.0500 300.4619 36.3724 137.6425 497035.8798 -2.4749 -2.5325
TCL: Setting parameter constraintScaling to 0.01953125
TCL: Running for 5000 steps
ETITLE: TS BOND ANGLE DIHED IMPRP ELECT VDW BOUNDARY MISC KINETIC TOTAL TEMP POTENTIAL TOTAL3 TEMPAVG PRESSURE GPRESSURE VOLUME PRESSAVG GPRESSAVG
ENERGY: 45000 1654.1155 2396.8528 3176.5344 0.0000 -175697.8561 20100.1751 67.3426 0.0000 30848.8137 -117454.0219 299.9339 -148302.8356 -117409.4196 299.9339 28.9266 119.6971 497035.8798 28.9266 119.6971
ENERGY: 46000 1639.5380 2349.0023 3209.7456 0.0000 -176245.4364 20270.0946 76.5271 0.0000 30964.5393 -117735.9894 301.0591 -148700.5287 -117690.8499 299.6910 -17.7237 23.4901 497419.2098 2.7704 2.7820
ENERGY: 47000 1556.5274 2434.4067 3163.3835 0.0000 -175924.6957 19927.2974 79.9721 0.0000 31062.5637 -117700.5449 302.0121 -148763.1086 -117654.2284 299.2691 1.5516 43.3645 497413.9463 -2.1483 -1.8072
ENERGY: 48000 1594.8560 2390.8154 3246.7152 0.0000 -175969.7132 20001.8997 83.0023 0.0000 30808.0737 -117844.3510 299.5378 -148652.4247 -117803.7897 299.5172 -64.8198 -23.2039 497977.7473 14.1818 14.4052
ENERGY: 49000 1681.9380 2424.3861 3207.2253 0.0000 -176241.5285 20160.0859 88.9695 0.0000 30687.7605 -117991.1632 298.3680 -148678.9237 -117950.8190 299.3635 -102.5294 -192.2459 496841.7891 -0.4312 -0.7354
ENERGY: 50000 1631.8696 2419.3622 3203.2774 0.0000 -175932.8924 20084.4062 90.0802 0.0000 30834.1093 -117669.7874 299.7909 -148503.8967 -117630.5863 299.8975 -92.1939 -0.5852 497481.6799 12.5584 13.1131
TCL: Setting parameter constraintScaling to 0
TCL: Running for 5000 steps
ETITLE: TS BOND ANGLE DIHED IMPRP ELECT VDW BOUNDARY MISC KINETIC TOTAL TEMP POTENTIAL TOTAL3 TEMPAVG PRESSURE GPRESSURE VOLUME PRESSAVG GPRESSAVG
ENERGY: 50000 1631.8696 2419.3622 3203.2774 0.0000 -175932.8923 20084.4062 0.0000 0.0000 30832.0199 -117761.9570 299.7706 -148593.9769 -117717.7113 299.7706 -84.8203 0.4139 497481.6799 -84.8203 0.4139
ENERGY: 51000 1639.8724 2453.2874 3207.0346 0.0000 -175861.3940 19954.8268 0.0000 0.0000 30834.7354 -117771.6374 299.7970 -148606.3728 -117727.7289 299.7004 -55.8099 -76.2383 496751.1069 3.1221 2.8530
ENERGY: 52000 1578.3192 2406.9478 3225.5216 0.0000 -176460.4093 20044.8771 0.0000 0.0000 30895.7732 -118308.9703 300.3905 -149204.7435 -118269.9522 298.8367 12.9189 27.4938 495437.2662 -8.9170 -9.6325
ENERGY: 53000 1656.6958 2410.5282 3179.2647 0.0000 -176203.0368 20244.1020 0.0000 0.0000 30898.2661 -117814.1800 300.4147 -148712.4461 -117767.3545 300.1163 -20.7202 -6.4318 497808.2837 7.0563 7.5418
ENERGY: 54000 1624.2098 2408.3410 3203.2281 0.0000 -175704.7955 19898.6198 0.0000 0.0000 30962.1658 -117608.2309 301.0360 -148570.3967 -117565.6399 300.9293 -74.8569 -76.7923 496583.7607 -3.8723 -3.6752
ENERGY: 55000 1609.6433 2414.6925 3225.1192 0.0000 -175972.1978 20096.0979 0.0000 0.0000 30659.9766 -117966.6683 298.0979 -148626.6449 -117923.3014 299.6097 17.4180 25.4524 498160.4481 8.4078 8.8205
