Info: SIMULATION PARAMETERS:
Info: TIMESTEP               2
Info: NUMBER OF STEPS        0
Info: STEPS PER CYCLE        10
Info: PERIODIC CELL BASIS 1  72.449 0 0
Info: PERIODIC CELL BASIS 2  0 93.247 0
Info: PERIODIC CELL BASIS 3  0 0 79.185
Info: PERIODIC CELL CENTER   -0.248 -0.156 -0.047
Info: WRAPPING WATERS AROUND PERIODIC BOUNDARIES ON OUTPUT.
Info: WRAPPING ALL CLUSTERS AROUND PERIODIC BOUNDARIES ON OUTPUT.
Info: FIRST LDB TIMESTEP     50
Info: LAST LDB TIMESTEP     -1
Info: HOM BACKGROUND SCALING 1
Info: PME BACKGROUND SCALING 1
Info: MIN ATOMS PER PATCH    40
Info: INITIAL TEMPERATURE    0
Info: CENTER OF MASS MOVING INITIALLY? NO
Info: DIELECTRIC             1
Info: EXCLUDE                SCALED ONE-FOUR
Info: 1-4 ELECTROSTATICS SCALED BY 0.833333
Info: MODIFIED 1-4 VDW PARAMETERS WILL BE USED
Info: NO DCD TRAJECTORY OUTPUT
Info: NO EXTENDED SYSTEM TRAJECTORY OUTPUT
Info: NO VELOCITY DCD OUTPUT
Info: NO FORCE DCD OUTPUT
Info: OUTPUT FILENAME        ../replicas/rep119/equilibration/eq0
Info: NO RESTART FILE
Info: SWITCHING ACTIVE
Info: SWITCHING ON           10
Info: SWITCHING OFF          12
Info: PAIRLIST DISTANCE      13.5
Info: PAIRLIST SHRINK RATE   0.01
Info: PAIRLIST GROW RATE     0.01
Info: PAIRLIST TRIGGER       0.3
Info: PAIRLISTS PER CYCLE    2
Info: PAIRLISTS ENABLED
Info: MARGIN                 0
Info: HYDROGEN GROUP CUTOFF  2.5
Info: PATCH DIMENSION        16
Info: ENERGY OUTPUT STEPS    500
Info: CROSSTERM ENERGY INCLUDED IN DIHEDRAL
Info: TIMING OUTPUT STEPS    5000
Info: PRESSURE OUTPUT STEPS  500
Info: HARMONIC CONSTRAINTS ACTIVE
Info: HARMONIC CONS EXP      2
Info: HARMONIC CONS SCALING  10
Info: CONJUGATE GRADIENT MINIMIZATION ACTIVE
Info: LINE MINIMIZATION GOAL = 0.001
Info: BABY STEP SIZE = 0.01
Info: TINY STEP SIZE = 1e-06
Info: PARTICLE MESH EWALD (PME) ACTIVE
Info: PME TOLERANCE               1e-06
Info: PME EWALD COEFFICIENT       0.257952
Info: PME INTERPOLATION ORDER     4
Info: PME GRID DIMENSIONS         80 96 80
Info: PME MAXIMUM GRID SPACING    1
Info: FULL ELECTROSTATIC EVALUATION FREQUENCY      2
Info: USING VERLET I (r-RESPA) MTS SCHEME.
Info: C1 SPLITTING OF LONG RANGE ELECTROSTATICS
Info: PLACING ATOMS IN PATCHES BY HYDROGEN GROUPS
Info: RIGID BONDS TO HYDROGEN : ALL
Info:         ERROR TOLERANCE : 1e-05
Info:          MAX ITERATIONS : 100
Info: RIGID WATER USING SETTLE ALGORITHM
Info: RANDOM NUMBER SEED     1503693229
Info: USE HYDROGEN BONDS?    NO
Info: Using AMBER format force field!
Info: AMBER PARM FILE        ../build/complex.top
Info: COORDINATE PDB         ../build/complex.pdb
Info: Exclusions in PARM file will be ignored!
Info: SCNB (VDW SCALING)     2
Info: USING ARITHMETIC MEAN TO COMBINE L-J SIGMA PARAMETERS
Info: SUMMARY OF PARAMETERS:
Info: 71 BONDS
Info: 145 ANGLES
Info:   145 HARMONIC
Info:   0 COSINE-BASED
Info: 76 DIHEDRAL
Info: 0 IMPROPER
Info: 0 CROSSTERM
Info: 0 VDW
Info: 190 VDW_PAIRS
Info: 0 NBTHOLE_PAIRS
Info: STRUCTURE SUMMARY:
Info: 49394 ATOMS
Info: 49448 BONDS
Info: 8698 ANGLES
Info: 18780 DIHEDRALS
Info: 0 IMPROPERS
Info: 0 CROSSTERMS
Info: 0 EXCLUSIONS
Info: 2336 CONSTRAINTS
Info: 47058 RIGID BONDS
Info: 101124 DEGREES OF FREEDOM
Info: 17225 HYDROGEN GROUPS
Info: 4 ATOMS IN LARGEST HYDROGEN GROUP
Info: 17225 MIGRATION GROUPS
Info: 4 ATOMS IN LARGEST MIGRATION GROUP
Info: TOTAL MASS = 301478 amu
Info: TOTAL CHARGE = 1.00115e-05 e
Info: MASS DENSITY = 0.935846 g/cm^3
Info: ATOM DENSITY = 0.0923345 atoms/A^3
Info: ADDED 70656 IMPLICIT EXCLUSIONS
Info: NONBONDED TABLE R-SQUARED SPACING: 0.0625
Info: NONBONDED TABLE SIZE: 769 POINTS
Info: REMOVING COM VELOCITY 0 0 0
TCL: Minimizing for 100 steps
ETITLE: TS BOND ANGLE DIHED IMPRP ELECT VDW BOUNDARY MISC KINETIC TOTAL TEMP POTENTIAL TOTAL3 TEMPAVG PRESSURE GPRESSURE VOLUME PRESSAVG GPRESSAVG
ENERGY: 0 155.4176 1012.2698 2855.7272 0.0000 -154496.7913 207729.2052 0.0468 0.0000 0.0000 57255.8753 0.0000 57255.8753 57255.8753 0.0000 116350.2532 86546.1670 534946.2959 116350.2532 86546.1670
ENERGY: 20 304.7548 935.7911 2893.4663 0.0000 -158672.9403 17936.6595 143.9454 0.0000 0.0000 -136458.3231 0.0000 -136458.3231 -136458.3231 0.0000 16523.9388 -239.4557 534946.2959 16523.9388 -239.4557
ENERGY: 40 198.7431 799.5725 2896.9273 0.0000 -162811.4531 16417.9537 221.3029 0.0000 0.0000 -142276.9535 0.0000 -142276.9535 -142276.9535 0.0000 15011.2703 -2135.4698 534946.2959 15011.2703 -2135.4698
ENERGY: 60 130.5284 715.3440 2898.2166 0.0000 -167496.1553 15446.7542 315.2796 0.0000 0.0000 -147990.0326 0.0000 -147990.0326 -147990.0326 0.0000 13793.8841 -3799.3982 534946.2959 13793.8841 -3799.3982
ENERGY: 80 431.2740 765.6310 2904.3784 0.0000 -169937.5228 15121.1531 372.0121 0.0000 0.0000 -150343.0742 0.0000 -150343.0742 -150343.0742 0.0000 13270.3323 -4577.2428 534946.2959 13270.3323 -4577.2428
ENERGY: 100 129.7158 708.0658 2904.2780 0.0000 -171050.0696 15018.6527 384.2000 0.0000 0.0000 -151905.1574 0.0000 -151905.1574 -151905.1574 0.0000 13092.9121 -4843.6332 534946.2959 13092.9121 -4843.6332
TCL: Setting parameter constraintScaling to 5.0
TCL: Minimizing for 100 steps
ETITLE: TS BOND ANGLE DIHED IMPRP ELECT VDW BOUNDARY MISC KINETIC TOTAL TEMP POTENTIAL TOTAL3 TEMPAVG PRESSURE GPRESSURE VOLUME PRESSAVG GPRESSAVG
ENERGY: 100 129.7158 708.0658 2904.2780 0.0000 -171050.0696 15018.6527 192.1000 0.0000 0.0000 -152097.2574 0.0000 -152097.2574 -152097.2574 0.0000 13703.5073 -22944.4559 534946.2959 13703.5073 -22944.4559
ENERGY: 120 118.6824 680.2877 2909.9066 0.0000 -172396.3218 14830.1200 259.9551 0.0000 0.0000 -153597.3700 0.0000 -153597.3700 -153597.3700 0.0000 13320.9460 -4756.3094 534946.2959 13320.9460 -4756.3094
ENERGY: 140 109.1495 671.1468 2912.0864 0.0000 -174830.2994 14716.1437 337.7317 0.0000 0.0000 -156084.0413 0.0000 -156084.0413 -156084.0413 0.0000 12908.9532 -5423.1562 534946.2959 12908.9532 -5423.1562
ENERGY: 160 125.8590 667.1488 2914.1927 0.0000 -175966.9857 14735.1316 362.9175 0.0000 0.0000 -157161.7360 0.0000 -157161.7360 -157161.7360 0.0000 12806.9025 -5644.5206 534946.2959 12806.9025 -5644.5206
ENERGY: 180 303.5293 659.6755 2917.2963 0.0000 -177408.6342 14815.0094 395.3813 0.0000 0.0000 -158317.7424 0.0000 -158317.7424 -158317.7424 0.0000 12699.3204 -5901.5707 534946.2959 12699.3204 -5901.5707
ENERGY: 200 109.2076 628.4770 2923.3596 0.0000 -179544.0846 15071.1955 441.8898 0.0000 0.0000 -160369.9551 0.0000 -160369.9551 -160369.9551 0.0000 12659.9888 -6162.4938 534946.2959 12659.9888 -6162.4938
TCL: Setting parameter constraintScaling to 2.5
TCL: Minimizing for 100 steps
ETITLE: TS BOND ANGLE DIHED IMPRP ELECT VDW BOUNDARY MISC KINETIC TOTAL TEMP POTENTIAL TOTAL3 TEMPAVG PRESSURE GPRESSURE VOLUME PRESSAVG GPRESSAVG
ENERGY: 200 109.2076 628.4770 2923.3596 0.0000 -179544.0846 15071.1955 220.9449 0.0000 0.0000 -160590.9000 0.0000 -160590.9000 -160590.9000 0.0000 13208.4177 -25281.6555 534946.2959 13208.4177 -25281.6555
ENERGY: 220 275.0118 652.0324 2925.2525 0.0000 -180395.2967 15108.8605 287.9278 0.0000 0.0000 -161146.2117 0.0000 -161146.2117 -161146.2117 0.0000 13000.0996 -5921.7075 534946.2959 13000.0996 -5921.7075
ENERGY: 240 144.4903 629.0407 2922.0901 0.0000 -181650.0896 15308.6928 331.5368 0.0000 0.0000 -162314.2390 0.0000 -162314.2390 -162314.2390 0.0000 12968.6337 -6083.1937 534946.2959 12968.6337 -6083.1937
ENERGY: 260 238.6277 648.3042 2922.1911 0.0000 -183611.8232 15753.3246 410.1993 0.0000 0.0000 -163639.1763 0.0000 -163639.1763 -163639.1763 0.0000 12997.5848 -6273.2108 534946.2959 12997.5848 -6273.2108
ENERGY: 280 182.8727 654.5845 2917.9276 0.0000 -184833.9356 16104.7973 431.2867 0.0000 0.0000 -164542.4669 0.0000 -164542.4669 -164542.4669 0.0000 13136.5271 -6276.1453 534946.2959 13136.5271 -6276.1453
ENERGY: 300 181.0654 672.5003 2923.2638 0.0000 -185740.5297 16391.9884 428.1253 0.0000 0.0000 -165143.5866 0.0000 -165143.5866 -165143.5866 0.0000 13254.2854 -6246.7207 534946.2959 13254.2854 -6246.7207
TCL: Setting parameter constraintScaling to 1.25
TCL: Minimizing for 100 steps
ETITLE: TS BOND ANGLE DIHED IMPRP ELECT VDW BOUNDARY MISC KINETIC TOTAL TEMP POTENTIAL TOTAL3 TEMPAVG PRESSURE GPRESSURE VOLUME PRESSAVG GPRESSAVG
ENERGY: 300 181.0654 672.5003 2923.2638 0.0000 -185740.5297 16391.9884 214.0626 0.0000 0.0000 -165357.6492 0.0000 -165357.6492 -165357.6492 0.0000 13670.0092 -26251.2162 534946.2959 13670.0092 -26251.2162
ENERGY: 320 164.8046 664.3545 2915.3175 0.0000 -186223.0135 16488.0663 249.7089 0.0000 0.0000 -165740.7618 0.0000 -165740.7618 -165740.7618 0.0000 13644.7503 -5919.7274 534946.2959 13644.7503 -5919.7274
ENERGY: 340 198.4916 679.4053 2911.1984 0.0000 -187469.1045 16823.9061 333.2252 0.0000 0.0000 -166522.8779 0.0000 -166522.8779 -166522.8779 0.0000 13597.8320 -6095.7916 534946.2959 13597.8320 -6095.7916
ENERGY: 360 137.5457 653.3661 2904.7073 0.0000 -188132.1097 17032.3805 361.5195 0.0000 0.0000 -167042.5904 0.0000 -167042.5904 -167042.5904 0.0000 13685.0133 -6096.2910 534946.2959 13685.0133 -6096.2910
ENERGY: 380 176.6826 662.3649 2910.7583 0.0000 -188937.3108 17355.7274 330.1813 0.0000 0.0000 -167501.5964 0.0000 -167501.5964 -167501.5964 0.0000 13894.6387 -5961.4192 534946.2959 13894.6387 -5961.4192
ENERGY: 400 289.1316 700.1520 2931.2209 0.0000 -190319.3512 17925.6373 326.3785 0.0000 0.0000 -168146.8310 0.0000 -168146.8310 -168146.8310 0.0000 14223.9240 -5822.3855 534946.2959 14223.9240 -5822.3855
TCL: Setting parameter constraintScaling to 0.625
TCL: Minimizing for 100 steps
ETITLE: TS BOND ANGLE DIHED IMPRP ELECT VDW BOUNDARY MISC KINETIC TOTAL TEMP POTENTIAL TOTAL3 TEMPAVG PRESSURE GPRESSURE VOLUME PRESSAVG GPRESSAVG
ENERGY: 400 289.1316 700.1520 2931.2209 0.0000 -190319.3512 17925.6373 163.1892 0.0000 0.0000 -168310.0202 0.0000 -168310.0202 -168310.0202 0.0000 14502.8837 -26511.8436 534946.2959 14502.8837 -26511.8436
ENERGY: 420 155.4873 644.3745 2901.7375 0.0000 -190614.3699 17963.2590 191.2643 0.0000 0.0000 -168758.2474 0.0000 -168758.2474 -168758.2474 0.0000 14382.6763 -5668.8473 534946.2959 14382.6763 -5668.8473
ENERGY: 440 353.2965 753.6326 2916.0075 0.0000 -191436.9154 18194.8274 251.6309 0.0000 0.0000 -168967.5205 0.0000 -168967.5205 -168967.5205 0.0000 14337.4943 -5800.0574 534946.2959 14337.4943 -5800.0574
ENERGY: 460 207.9345 676.7517 2892.1055 0.0000 -191617.0557 18251.1442 247.6737 0.0000 0.0000 -169341.4462 0.0000 -169341.4462 -169341.4462 0.0000 14410.6153 -5769.0251 534946.2959 14410.6153 -5769.0251
ENERGY: 480 155.7444 684.2117 2903.8636 0.0000 -192354.8585 18555.2056 242.9410 0.0000 0.0000 -169812.8922 0.0000 -169812.8922 -169812.8922 0.0000 14634.7973 -5608.6762 534946.2959 14634.7973 -5608.6762
ENERGY: 500 196.2728 706.7086 2905.4430 0.0000 -193342.4086 18951.8399 264.0179 0.0000 0.0000 -170318.1263 0.0000 -170318.1263 -170318.1263 0.0000 14804.8222 -5582.4584 534946.2959 14804.8222 -5582.4584
TCL: Setting parameter constraintScaling to 0.3125
TCL: Minimizing for 100 steps
ETITLE: TS BOND ANGLE DIHED IMPRP ELECT VDW BOUNDARY MISC KINETIC TOTAL TEMP POTENTIAL TOTAL3 TEMPAVG PRESSURE GPRESSURE VOLUME PRESSAVG GPRESSAVG
ENERGY: 500 196.2728 706.7086 2905.4430 0.0000 -193342.4086 18951.8399 132.0090 0.0000 0.0000 -170450.1353 0.0000 -170450.1353 -170450.1353 0.0000 14988.8942 -26728.0355 534946.2959 14988.8942 -26728.0355
ENERGY: 520 242.6735 747.8262 2891.2491 0.0000 -193986.5089 19134.1381 169.9028 0.0000 0.0000 -170800.7192 0.0000 -170800.7192 -170800.7192 0.0000 14899.2408 -5552.7707 534946.2959 14899.2408 -5552.7707
ENERGY: 540 203.6053 724.5958 2897.1561 0.0000 -194551.7942 19338.2852 190.4548 0.0000 0.0000 -171197.6970 0.0000 -171197.6970 -171197.6970 0.0000 14924.8223 -5554.0842 534946.2959 14924.8223 -5554.0842
ENERGY: 560 187.1304 680.9906 2882.1370 0.0000 -194981.2004 19485.9668 197.2547 0.0000 0.0000 -171547.7209 0.0000 -171547.7209 -171547.7209 0.0000 15008.6875 -5523.8355 534946.2959 15008.6875 -5523.8355
ENERGY: 580 165.3310 681.5405 2889.1494 0.0000 -195414.6166 19683.0262 184.4836 0.0000 0.0000 -171811.0859 0.0000 -171811.0859 -171811.0859 0.0000 15206.4944 -5381.6898 534946.2959 15206.4944 -5381.6898
ENERGY: 600 152.1315 672.4426 2885.6840 0.0000 -196357.9144 20089.3280 193.9413 0.0000 0.0000 -172364.3869 0.0000 -172364.3869 -172364.3869 0.0000 15438.3095 -5275.2300 534946.2959 15438.3095 -5275.2300
TCL: Setting parameter constraintScaling to 0.15625
TCL: Minimizing for 100 steps
ETITLE: TS BOND ANGLE DIHED IMPRP ELECT VDW BOUNDARY MISC KINETIC TOTAL TEMP POTENTIAL TOTAL3 TEMPAVG PRESSURE GPRESSURE VOLUME PRESSAVG GPRESSAVG
ENERGY: 600 152.1315 672.4426 2885.6840 0.0000 -196357.9144 20089.3280 96.9707 0.0000 0.0000 -172461.3576 0.0000 -172461.3576 -172461.3576 0.0000 15554.2388 -26875.4159 534946.2959 15554.2388 -26875.4159
ENERGY: 620 179.7990 665.6086 2868.3503 0.0000 -196782.7397 20176.1130 113.5974 0.0000 0.0000 -172779.2715 0.0000 -172779.2715 -172779.2715 0.0000 15456.9170 -5300.5861 534946.2959 15456.9170 -5300.5861
ENERGY: 640 175.3398 697.3631 2871.1634 0.0000 -197403.3296 20401.1668 127.5336 0.0000 0.0000 -173130.7629 0.0000 -173130.7629 -173130.7629 0.0000 15544.6899 -5274.5675 534946.2959 15544.6899 -5274.5675
ENERGY: 660 171.9172 670.6140 2863.4199 0.0000 -197611.7194 20474.3247 127.6843 0.0000 0.0000 -173303.7593 0.0000 -173303.7593 -173303.7593 0.0000 15591.4995 -5255.2103 534946.2959 15591.4995 -5255.2103
ENERGY: 680 169.1406 660.6199 2868.0026 0.0000 -198228.3647 20756.4777 125.5463 0.0000 0.0000 -173648.5776 0.0000 -173648.5776 -173648.5776 0.0000 15808.3048 -5105.8619 534946.2959 15808.3048 -5105.8619
ENERGY: 700 227.9023 692.5275 2874.6189 0.0000 -199446.2542 21271.3806 140.2407 0.0000 0.0000 -174239.5842 0.0000 -174239.5842 -174239.5842 0.0000 16097.2952 -4963.0060 534946.2959 16097.2952 -4963.0060
TCL: Setting parameter constraintScaling to 0.078125
TCL: Minimizing for 100 steps
ETITLE: TS BOND ANGLE DIHED IMPRP ELECT VDW BOUNDARY MISC KINETIC TOTAL TEMP POTENTIAL TOTAL3 TEMPAVG PRESSURE GPRESSURE VOLUME PRESSAVG GPRESSAVG
ENERGY: 700 227.9023 692.5275 2874.6189 0.0000 -199446.2542 21271.3806 70.1204 0.0000 0.0000 -174309.7045 0.0000 -174309.7045 -174309.7045 0.0000 16169.4918 -26996.6458 534946.2959 16169.4918 -26996.6458
ENERGY: 720 159.7297 643.0356 2848.6365 0.0000 -199620.3485 21283.2002 74.5331 0.0000 0.0000 -174611.2133 0.0000 -174611.2133 -174611.2133 0.0000 16101.9789 -4977.4242 534946.2959 16101.9789 -4977.4242
ENERGY: 740 174.9731 663.8428 2845.6453 0.0000 -199954.8517 21380.0813 81.2531 0.0000 0.0000 -174809.0562 0.0000 -174809.0562 -174809.0562 0.0000 16077.0173 -5036.6316 534946.2959 16077.0173 -5036.6316
ENERGY: 760 173.1998 685.1735 2846.6963 0.0000 -200527.1650 21585.4553 88.6862 0.0000 0.0000 -175147.9539 0.0000 -175147.9539 -175147.9539 0.0000 16151.1079 -5028.6256 534946.2959 16151.1079 -5028.6256
ENERGY: 780 157.8399 653.4812 2843.5541 0.0000 -200889.1715 21739.3855 85.4545 0.0000 0.0000 -175409.4564 0.0000 -175409.4564 -175409.4564 0.0000 16323.0185 -4903.5261 534946.2959 16323.0185 -4903.5261
ENERGY: 800 173.5902 676.8377 2855.1409 0.0000 -201576.3811 22045.2195 89.0763 0.0000 0.0000 -175736.5166 0.0000 -175736.5166 -175736.5166 0.0000 16500.1141 -4813.6104 534946.2959 16500.1141 -4813.6104
TCL: Setting parameter constraintScaling to 0.0390625
TCL: Minimizing for 100 steps
ETITLE: TS BOND ANGLE DIHED IMPRP ELECT VDW BOUNDARY MISC KINETIC TOTAL TEMP POTENTIAL TOTAL3 TEMPAVG PRESSURE GPRESSURE VOLUME PRESSAVG GPRESSAVG
ENERGY: 800 173.5902 676.8377 2855.1409 0.0000 -201576.3811 22045.2195 44.5381 0.0000 0.0000 -175781.0548 0.0000 -175781.0548 -175781.0548 0.0000 16541.7982 -27138.4205 534946.2959 16541.7982 -27138.4205
ENERGY: 820 226.4042 695.8433 2837.0429 0.0000 -201930.3946 22128.5528 49.3743 0.0000 0.0000 -175993.1772 0.0000 -175993.1772 -175993.1772 0.0000 16458.0147 -4897.9512 534946.2959 16458.0147 -4897.9512
ENERGY: 840 192.9969 683.6096 2833.7010 0.0000 -202166.3473 22215.1476 51.3243 0.0000 0.0000 -176189.5679 0.0000 -176189.5679 -176189.5679 0.0000 16509.7065 -4865.1030 534946.2959 16509.7065 -4865.1030
ENERGY: 860 164.6926 661.7453 2831.1351 0.0000 -202392.2330 22311.5836 50.4098 0.0000 0.0000 -176372.6665 0.0000 -176372.6665 -176372.6665 0.0000 16602.9489 -4793.8573 534946.2959 16602.9489 -4793.8573
ENERGY: 880 203.3315 714.4690 2855.6238 0.0000 -203035.9121 22632.0032 52.0449 0.0000 0.0000 -176578.4397 0.0000 -176578.4397 -176578.4397 0.0000 16801.1804 -4674.7809 534946.2959 16801.1804 -4674.7809
ENERGY: 900 161.2087 659.3192 2838.3673 0.0000 -203199.1653 22671.5427 53.3020 0.0000 0.0000 -176815.4255 0.0000 -176815.4255 -176815.4255 0.0000 16861.2145 -4649.5566 534946.2959 16861.2145 -4649.5566
TCL: Setting parameter constraintScaling to 0.01953125
TCL: Minimizing for 100 steps
ETITLE: TS BOND ANGLE DIHED IMPRP ELECT VDW BOUNDARY MISC KINETIC TOTAL TEMP POTENTIAL TOTAL3 TEMPAVG PRESSURE GPRESSURE VOLUME PRESSAVG GPRESSAVG
ENERGY: 900 161.2087 659.3192 2838.3673 0.0000 -203199.1653 22671.5427 26.6510 0.0000 0.0000 -176842.0764 0.0000 -176842.0764 -176842.0764 0.0000 16884.4321 -27180.0443 534946.2959 16884.4321 -27180.0443
ENERGY: 920 198.3726 668.5284 2821.4131 0.0000 -203503.6169 22761.2200 28.7701 0.0000 0.0000 -177025.3127 0.0000 -177025.3127 -177025.3127 0.0000 16825.3735 -4711.4681 534946.2959 16825.3735 -4711.4681
ENERGY: 940 176.0640 681.7290 2823.1016 0.0000 -203717.1168 22853.2668 29.6639 0.0000 0.0000 -177153.2915 0.0000 -177153.2915 -177153.2915 0.0000 16867.0069 -4691.1673 534946.2959 16867.0069 -4691.1673
ENERGY: 960 169.9521 662.1521 2819.1653 0.0000 -203919.7562 22942.6151 29.3751 0.0000 0.0000 -177296.4965 0.0000 -177296.4965 -177296.4965 0.0000 16966.1143 -4627.5455 534946.2959 16966.1143 -4627.5455
ENERGY: 980 169.9296 672.2320 2830.4118 0.0000 -204361.9248 23164.8277 30.0141 0.0000 0.0000 -177494.5096 0.0000 -177494.5096 -177494.5096 0.0000 17110.8116 -4529.3257 534946.2959 17110.8116 -4529.3257
ENERGY: 1000 156.6258 655.6198 2820.6835 0.0000 -205006.3647 23458.4373 32.1143 0.0000 0.0000 -177882.8841 0.0000 -177882.8841 -177882.8841 0.0000 17247.9864 -4464.2071 534946.2959 17247.9864 -4464.2071
TCL: Setting parameter constraintScaling to 0
TCL: Minimizing for 5000 steps
ETITLE: TS BOND ANGLE DIHED IMPRP ELECT VDW BOUNDARY MISC KINETIC TOTAL TEMP POTENTIAL TOTAL3 TEMPAVG PRESSURE GPRESSURE VOLUME PRESSAVG GPRESSAVG
ENERGY: 1000 156.6258 655.6198 2820.6835 0.0000 -205006.3647 23458.4373 0.0000 0.0000 0.0000 -177914.9984 0.0000 -177914.9984 -177914.9984 0.0000 17274.1235 -27221.7903 534946.2959 17274.1235 -27221.7903
ENERGY: 2000 167.9681 663.3774 2805.7016 0.0000 -214661.5037 27795.4577 0.0000 0.0000 0.0000 -183228.9988 0.0000 -183228.9988 -183228.9988 0.0000 19547.8156 -3251.4776 534946.2959 19547.8156 -3251.4776
ENERGY: 3000 166.7254 666.1105 2793.5551 0.0000 -217583.5028 28974.2376 0.0000 0.0000 0.0000 -184982.8742 0.0000 -184982.8742 -184982.8742 0.0000 20169.5350 -2938.6570 534946.2959 20169.5350 -2938.6570
ENERGY: 4000 167.6806 663.7062 2786.3198 0.0000 -218912.0718 29498.2317 0.0000 0.0000 0.0000 -185796.1335 0.0000 -185796.1335 -185796.1335 0.0000 20438.6239 -2806.8381 534946.2959 20438.6239 -2806.8381
ENERGY: 5000 164.8144 662.6536 2786.8112 0.0000 -219557.8118 29743.4622 0.0000 0.0000 0.0000 -186200.0703 0.0000 -186200.0703 -186200.0703 0.0000 20569.0169 -2745.2619 534946.2959 20569.0169 -2745.2619
ENERGY: 6000 165.4356 661.7117 2789.7152 0.0000 -219973.3108 29916.2388 0.0000 0.0000 0.0000 -186440.2096 0.0000 -186440.2096 -186440.2096 0.0000 20664.9220 -2696.1768 534946.2959 20664.9220 -2696.1768
