Info: SIMULATION PARAMETERS:
Info: TIMESTEP               2
Info: NUMBER OF STEPS        0
Info: STEPS PER CYCLE        10
Info: PERIODIC CELL BASIS 1  72.449 0 0
Info: PERIODIC CELL BASIS 2  0 93.247 0
Info: PERIODIC CELL BASIS 3  0 0 79.185
Info: PERIODIC CELL CENTER   -0.248 -0.156 -0.047
Info: WRAPPING WATERS AROUND PERIODIC BOUNDARIES ON OUTPUT.
Info: WRAPPING ALL CLUSTERS AROUND PERIODIC BOUNDARIES ON OUTPUT.
Info: FIRST LDB TIMESTEP     50
Info: LAST LDB TIMESTEP     -1
Info: HOM BACKGROUND SCALING 1
Info: PME BACKGROUND SCALING 1
Info: MIN ATOMS PER PATCH    40
Info: INITIAL TEMPERATURE    0
Info: CENTER OF MASS MOVING INITIALLY? NO
Info: DIELECTRIC             1
Info: EXCLUDE                SCALED ONE-FOUR
Info: 1-4 ELECTROSTATICS SCALED BY 0.833333
Info: MODIFIED 1-4 VDW PARAMETERS WILL BE USED
Info: NO DCD TRAJECTORY OUTPUT
Info: NO EXTENDED SYSTEM TRAJECTORY OUTPUT
Info: NO VELOCITY DCD OUTPUT
Info: NO FORCE DCD OUTPUT
Info: OUTPUT FILENAME        ../replicas/rep13/equilibration/eq0
Info: NO RESTART FILE
Info: SWITCHING ACTIVE
Info: SWITCHING ON           10
Info: SWITCHING OFF          12
Info: PAIRLIST DISTANCE      13.5
Info: PAIRLIST SHRINK RATE   0.01
Info: PAIRLIST GROW RATE     0.01
Info: PAIRLIST TRIGGER       0.3
Info: PAIRLISTS PER CYCLE    2
Info: PAIRLISTS ENABLED
Info: MARGIN                 0
Info: HYDROGEN GROUP CUTOFF  2.5
Info: PATCH DIMENSION        16
Info: ENERGY OUTPUT STEPS    500
Info: CROSSTERM ENERGY INCLUDED IN DIHEDRAL
Info: TIMING OUTPUT STEPS    5000
Info: PRESSURE OUTPUT STEPS  500
Info: HARMONIC CONSTRAINTS ACTIVE
Info: HARMONIC CONS EXP      2
Info: HARMONIC CONS SCALING  10
Info: CONJUGATE GRADIENT MINIMIZATION ACTIVE
Info: LINE MINIMIZATION GOAL = 0.001
Info: BABY STEP SIZE = 0.01
Info: TINY STEP SIZE = 1e-06
Info: PARTICLE MESH EWALD (PME) ACTIVE
Info: PME TOLERANCE               1e-06
Info: PME EWALD COEFFICIENT       0.257952
Info: PME INTERPOLATION ORDER     4
Info: PME GRID DIMENSIONS         80 96 80
Info: PME MAXIMUM GRID SPACING    1
Info: FULL ELECTROSTATIC EVALUATION FREQUENCY      2
Info: USING VERLET I (r-RESPA) MTS SCHEME.
Info: C1 SPLITTING OF LONG RANGE ELECTROSTATICS
Info: PLACING ATOMS IN PATCHES BY HYDROGEN GROUPS
Info: RIGID BONDS TO HYDROGEN : ALL
Info:         ERROR TOLERANCE : 1e-05
Info:          MAX ITERATIONS : 100
Info: RIGID WATER USING SETTLE ALGORITHM
Info: RANDOM NUMBER SEED     1503250912
Info: USE HYDROGEN BONDS?    NO
Info: Using AMBER format force field!
Info: AMBER PARM FILE        ../build/complex.top
Info: COORDINATE PDB         ../build/complex.pdb
Info: Exclusions in PARM file will be ignored!
Info: SCNB (VDW SCALING)     2
Info: USING ARITHMETIC MEAN TO COMBINE L-J SIGMA PARAMETERS
Info: SUMMARY OF PARAMETERS:
Info: 71 BONDS
Info: 145 ANGLES
Info: 76 DIHEDRAL
Info: 0 IMPROPER
Info: 0 CROSSTERM
Info: 0 VDW
Info: 190 VDW_PAIRS
Info: 0 NBTHOLE_PAIRS
Info: STRUCTURE SUMMARY:
Info: 49394 ATOMS
Info: 49448 BONDS
Info: 8698 ANGLES
Info: 18780 DIHEDRALS
Info: 0 IMPROPERS
Info: 0 CROSSTERMS
Info: 0 EXCLUSIONS
Info: 2336 CONSTRAINTS
Info: 47058 RIGID BONDS
Info: 101124 DEGREES OF FREEDOM
Info: 17225 HYDROGEN GROUPS
Info: 4 ATOMS IN LARGEST HYDROGEN GROUP
Info: 17225 MIGRATION GROUPS
Info: 4 ATOMS IN LARGEST MIGRATION GROUP
Info: TOTAL MASS = 301478 amu
Info: TOTAL CHARGE = 1.00115e-05 e
Info: MASS DENSITY = 0.935846 g/cm^3
Info: ATOM DENSITY = 0.0923345 atoms/A^3
Info: ADDED 70656 IMPLICIT EXCLUSIONS
Info: NONBONDED TABLE R-SQUARED SPACING: 0.0625
Info: NONBONDED TABLE SIZE: 769 POINTS
Info: REMOVING COM VELOCITY 0 0 0
TCL: Minimizing for 100 steps
ETITLE: TS BOND ANGLE DIHED IMPRP ELECT VDW BOUNDARY MISC KINETIC TOTAL TEMP POTENTIAL TOTAL3 TEMPAVG PRESSURE GPRESSURE VOLUME PRESSAVG GPRESSAVG
ENERGY: 0 155.4176 1012.2698 2855.7272 0.0000 -154496.7913 207729.2052 0.0468 0.0000 0.0000 57255.8753 0.0000 57255.8753 57255.8753 0.0000 116350.2532 86546.1670 534946.2959 116350.2532 86546.1670
ENERGY: 20 304.7552 935.7912 2893.4663 0.0000 -158672.9405 17936.6594 143.9454 0.0000 0.0000 -136458.3230 0.0000 -136458.3230 -136458.3230 0.0000 16523.9386 -239.4559 534946.2959 16523.9386 -239.4559
ENERGY: 40 198.7422 799.5724 2896.9273 0.0000 -162811.4529 16417.9538 221.3029 0.0000 0.0000 -142276.9543 0.0000 -142276.9543 -142276.9543 0.0000 15011.2704 -2135.4696 534946.2959 15011.2704 -2135.4696
ENERGY: 60 130.5285 715.3441 2898.2165 0.0000 -167496.1526 15446.7546 315.2795 0.0000 0.0000 -147990.0293 0.0000 -147990.0293 -147990.0293 0.0000 13793.8847 -3799.3973 534946.2959 13793.8847 -3799.3973
ENERGY: 80 431.2755 765.6310 2904.3784 0.0000 -169937.5298 15121.1522 372.0123 0.0000 0.0000 -150343.0803 0.0000 -150343.0803 -150343.0803 0.0000 13270.3310 -4577.2449 534946.2959 13270.3310 -4577.2449
ENERGY: 100 119.3867 710.0601 2905.2588 0.0000 -171259.7094 14991.7873 387.3611 0.0000 0.0000 -152145.8554 0.0000 -152145.8554 -152145.8554 0.0000 13056.2662 -4908.1715 534946.2959 13056.2662 -4908.1715
TCL: Setting parameter constraintScaling to 5.0
TCL: Minimizing for 100 steps
ETITLE: TS BOND ANGLE DIHED IMPRP ELECT VDW BOUNDARY MISC KINETIC TOTAL TEMP POTENTIAL TOTAL3 TEMPAVG PRESSURE GPRESSURE VOLUME PRESSAVG GPRESSAVG
ENERGY: 100 119.3867 710.0601 2905.2588 0.0000 -171259.7094 14991.7873 193.6805 0.0000 0.0000 -152339.5360 0.0000 -152339.5360 -152339.5360 0.0000 13672.7722 -23021.8171 534946.2959 13672.7722 -23021.8171
ENERGY: 120 108.8854 687.5851 2912.9267 0.0000 -172865.8674 14798.2714 281.1913 0.0000 0.0000 -154077.0075 0.0000 -154077.0075 -154077.0075 0.0000 13218.2572 -4906.0124 534946.2959 13218.2572 -4906.0124
ENERGY: 140 309.4549 708.8707 2913.8026 0.0000 -174236.6174 14731.4840 326.6380 0.0000 0.0000 -155246.3672 0.0000 -155246.3672 -155246.3672 0.0000 12971.5328 -5303.2307 534946.2959 12971.5328 -5303.2307
ENERGY: 160 265.1264 683.0819 2923.1679 0.0000 -176274.6327 14757.2940 382.8636 0.0000 0.0000 -157263.0990 0.0000 -157263.0990 -157263.0990 0.0000 12741.0479 -5731.6458 534946.2959 12741.0479 -5731.6458
ENERGY: 180 268.9661 744.0946 2928.5667 0.0000 -178994.8304 15023.4184 473.2728 0.0000 0.0000 -159556.5118 0.0000 -159556.5118 -159556.5118 0.0000 12521.6366 -6212.7174 534946.2959 12521.6366 -6212.7174
ENERGY: 200 238.8306 694.1001 2941.3585 0.0000 -181555.8959 15586.9660 546.2597 0.0000 0.0000 -161548.3810 0.0000 -161548.3810 -161548.3810 0.0000 12582.6403 -6420.3777 534946.2959 12582.6403 -6420.3777
TCL: Setting parameter constraintScaling to 2.5
TCL: Minimizing for 100 steps
ETITLE: TS BOND ANGLE DIHED IMPRP ELECT VDW BOUNDARY MISC KINETIC TOTAL TEMP POTENTIAL TOTAL3 TEMPAVG PRESSURE GPRESSURE VOLUME PRESSAVG GPRESSAVG
ENERGY: 200 238.8306 694.1001 2941.3585 0.0000 -181555.8959 15586.9660 273.1298 0.0000 0.0000 -161821.5109 0.0000 -161821.5109 -161821.5109 0.0000 13229.5385 -25651.1523 534946.2959 13229.5385 -25651.1523
ENERGY: 220 251.1281 680.0070 2933.0271 0.0000 -182082.9158 15470.7576 338.6333 0.0000 0.0000 -162409.3627 0.0000 -162409.3627 -162409.3627 0.0000 12967.6961 -6090.9423 534946.2959 12967.6961 -6090.9423
ENERGY: 240 139.2595 665.8181 2928.5976 0.0000 -182462.5437 15494.1215 343.6167 0.0000 0.0000 -162891.1302 0.0000 -162891.1302 -162891.1302 0.0000 13034.2344 -6103.7329 534946.2959 13034.2344 -6103.7329
ENERGY: 260 164.8143 683.7344 2921.6269 0.0000 -183940.9243 15800.2687 385.4109 0.0000 0.0000 -163985.0691 0.0000 -163985.0691 -163985.0691 0.0000 13031.8855 -6242.0388 534946.2959 13031.8855 -6242.0388
ENERGY: 280 169.0588 700.9274 2917.6101 0.0000 -185423.7890 16229.3809 454.7921 0.0000 0.0000 -164952.0197 0.0000 -164952.0197 -164952.0197 0.0000 13143.8566 -6334.1677 534946.2959 13143.8566 -6334.1677
ENERGY: 300 126.6707 639.5543 2916.2565 0.0000 -186095.9585 16446.4040 481.3723 0.0000 0.0000 -165485.7006 0.0000 -165485.7006 -165485.7006 0.0000 13208.0437 -6338.4295 534946.2959 13208.0437 -6338.4295
TCL: Setting parameter constraintScaling to 1.25
TCL: Minimizing for 100 steps
ETITLE: TS BOND ANGLE DIHED IMPRP ELECT VDW BOUNDARY MISC KINETIC TOTAL TEMP POTENTIAL TOTAL3 TEMPAVG PRESSURE GPRESSURE VOLUME PRESSAVG GPRESSAVG
ENERGY: 300 126.6707 639.5543 2916.2565 0.0000 -186095.9585 16446.4040 240.6862 0.0000 0.0000 -165726.3868 0.0000 -165726.3868 -165726.3868 0.0000 13656.3961 -26348.5590 534946.2959 13656.3961 -26348.5590
ENERGY: 320 132.0815 624.5898 2911.1520 0.0000 -186667.2892 16580.3927 272.7674 0.0000 0.0000 -166146.3058 0.0000 -166146.3058 -166146.3058 0.0000 13629.8922 -5969.9311 534946.2959 13629.8922 -5969.9311
ENERGY: 340 152.4235 625.3241 2910.6962 0.0000 -187384.5923 16813.6651 296.3665 0.0000 0.0000 -166586.1168 0.0000 -166586.1168 -166586.1168 0.0000 13647.3652 -6007.8140 534946.2959 13647.3652 -6007.8140
ENERGY: 360 316.0460 691.3519 2906.8724 0.0000 -189026.0503 17376.7621 361.6063 0.0000 0.0000 -167373.4116 0.0000 -167373.4116 -167373.4116 0.0000 13880.0215 -6002.5798 534946.2959 13880.0215 -6002.5798
ENERGY: 380 175.1520 658.2738 2901.8382 0.0000 -189847.1646 17699.4522 379.3261 0.0000 0.0000 -168033.1223 0.0000 -168033.1223 -168033.1223 0.0000 13964.6164 -5984.4918 534946.2959 13964.6164 -5984.4918
ENERGY: 400 136.4004 634.0245 2899.7694 0.0000 -190370.5400 17896.9241 391.8249 0.0000 0.0000 -168411.5967 0.0000 -168411.5967 -168411.5967 0.0000 14071.3108 -5945.7040 534946.2959 14071.3108 -5945.7040
TCL: Setting parameter constraintScaling to 0.625
TCL: Minimizing for 100 steps
ETITLE: TS BOND ANGLE DIHED IMPRP ELECT VDW BOUNDARY MISC KINETIC TOTAL TEMP POTENTIAL TOTAL3 TEMPAVG PRESSURE GPRESSURE VOLUME PRESSAVG GPRESSAVG
ENERGY: 400 136.4004 634.0245 2899.7694 0.0000 -190370.5400 17896.9241 195.9124 0.0000 0.0000 -168607.5091 0.0000 -168607.5091 -168607.5091 0.0000 14369.1225 -26634.2791 534946.2959 14369.1225 -26634.2791
ENERGY: 420 137.8801 633.7601 2897.1020 0.0000 -190679.1924 17957.7441 215.1233 0.0000 0.0000 -168837.5828 0.0000 -168837.5828 -168837.5828 0.0000 14334.1603 -5715.6170 534946.2959 14334.1603 -5715.6170
ENERGY: 440 152.9083 641.3982 2892.5200 0.0000 -191111.5914 18093.2479 224.8462 0.0000 0.0000 -169106.6707 0.0000 -169106.6707 -169106.6707 0.0000 14391.8592 -5711.1643 534946.2959 14391.8592 -5711.1643
ENERGY: 460 149.6923 638.4445 2888.3384 0.0000 -192088.3838 18414.3422 259.2228 0.0000 0.0000 -169738.3436 0.0000 -169738.3436 -169738.3436 0.0000 14477.1454 -5733.9547 534946.2959 14477.1454 -5733.9547
ENERGY: 480 166.8897 676.1369 2887.7961 0.0000 -192446.7544 18561.2406 261.2627 0.0000 0.0000 -169893.4284 0.0000 -169893.4284 -169893.4284 0.0000 14573.1546 -5678.8564 534946.2959 14573.1546 -5678.8564
ENERGY: 500 194.7174 671.9170 2883.8528 0.0000 -193463.3265 18951.8664 285.5945 0.0000 0.0000 -170475.3784 0.0000 -170475.3784 -170475.3784 0.0000 14738.9470 -5636.3730 534946.2959 14738.9470 -5636.3730
TCL: Setting parameter constraintScaling to 0.3125
TCL: Minimizing for 100 steps
ETITLE: TS BOND ANGLE DIHED IMPRP ELECT VDW BOUNDARY MISC KINETIC TOTAL TEMP POTENTIAL TOTAL3 TEMPAVG PRESSURE GPRESSURE VOLUME PRESSAVG GPRESSAVG
ENERGY: 500 194.7174 671.9170 2883.8528 0.0000 -193463.3265 18951.8664 142.7973 0.0000 0.0000 -170618.1757 0.0000 -170618.1757 -170618.1757 0.0000 14926.6601 -26801.7813 534946.2959 14926.6601 -26801.7813
ENERGY: 520 229.4024 676.9863 2881.9858 0.0000 -193728.8843 19034.7299 153.0257 0.0000 0.0000 -170752.7542 0.0000 -170752.7542 -170752.7542 0.0000 14901.1475 -5489.5496 534946.2959 14901.1475 -5489.5496
ENERGY: 540 202.4355 666.4398 2875.8628 0.0000 -194612.3750 19339.2584 179.6893 0.0000 0.0000 -171348.6892 0.0000 -171348.6892 -171348.6892 0.0000 14992.6186 -5491.3779 534946.2959 14992.6186 -5491.3779
ENERGY: 560 390.0467 763.2657 2880.3289 0.0000 -195352.0428 19643.6664 187.5336 0.0000 0.0000 -171487.2015 0.0000 -171487.2015 -171487.2015 0.0000 15067.8178 -5469.8839 534946.2959 15067.8178 -5469.8839
ENERGY: 580 158.0803 640.2555 2871.9772 0.0000 -195249.3574 19586.6607 186.5773 0.0000 0.0000 -171805.8064 0.0000 -171805.8064 -171805.8064 0.0000 15163.4259 -5404.3821 534946.2959 15163.4259 -5404.3821
ENERGY: 600 161.8698 653.6621 2870.1905 0.0000 -195813.7776 19803.8182 197.5915 0.0000 0.0000 -172126.6455 0.0000 -172126.6455 -172126.6455 0.0000 15207.4675 -5406.0924 534946.2959 15207.4675 -5406.0924
TCL: Setting parameter constraintScaling to 0.15625
TCL: Minimizing for 100 steps
ETITLE: TS BOND ANGLE DIHED IMPRP ELECT VDW BOUNDARY MISC KINETIC TOTAL TEMP POTENTIAL TOTAL3 TEMPAVG PRESSURE GPRESSURE VOLUME PRESSAVG GPRESSAVG
ENERGY: 600 161.8698 653.6621 2870.1905 0.0000 -195813.7776 19803.8182 98.7957 0.0000 0.0000 -172225.4413 0.0000 -172225.4413 -172225.4413 0.0000 15321.6195 -26960.4786 534946.2959 15321.6195 -26960.4786
ENERGY: 620 279.6406 734.2539 2873.9626 0.0000 -196299.3027 19976.7109 109.3881 0.0000 0.0000 -172325.3466 0.0000 -172325.3466 -172325.3466 0.0000 15324.3298 -5335.6954 534946.2959 15324.3298 -5335.6954
ENERGY: 640 250.3753 677.1804 2865.1001 0.0000 -196520.1734 20051.9088 111.7245 0.0000 0.0000 -172563.8843 0.0000 -172563.8843 -172563.8843 0.0000 15442.8222 -5269.4957 534946.2959 15442.8222 -5269.4957
ENERGY: 660 209.0055 684.4924 2862.9229 0.0000 -197298.9329 20355.9534 122.9113 0.0000 0.0000 -173063.6474 0.0000 -173063.6474 -173063.6474 0.0000 15535.1642 -5250.7750 534946.2959 15535.1642 -5250.7750
ENERGY: 680 155.8387 654.8786 2860.3424 0.0000 -197398.2259 20384.8342 124.9447 0.0000 0.0000 -173217.3873 0.0000 -173217.3873 -173217.3873 0.0000 15579.1284 -5232.6280 534946.2959 15579.1284 -5232.6280
ENERGY: 700 174.8516 660.0054 2858.8916 0.0000 -197726.6468 20514.9040 128.5490 0.0000 0.0000 -173389.4453 0.0000 -173389.4453 -173389.4453 0.0000 15618.0529 -5216.5982 534946.2959 15618.0529 -5216.5982
TCL: Setting parameter constraintScaling to 0.078125
TCL: Minimizing for 100 steps
ETITLE: TS BOND ANGLE DIHED IMPRP ELECT VDW BOUNDARY MISC KINETIC TOTAL TEMP POTENTIAL TOTAL3 TEMPAVG PRESSURE GPRESSURE VOLUME PRESSAVG GPRESSAVG
ENERGY: 700 174.8516 660.0054 2858.8916 0.0000 -197726.6468 20514.9040 64.2745 0.0000 0.0000 -173453.7198 0.0000 -173453.7198 -173453.7198 0.0000 15685.2053 -27048.0956 534946.2959 15685.2053 -27048.0956
ENERGY: 720 306.8017 701.4373 2854.7596 0.0000 -198060.6054 20636.8379 67.1895 0.0000 0.0000 -173493.5795 0.0000 -173493.5795 -173493.5795 0.0000 15682.9797 -5187.2895 534946.2959 15682.9797 -5187.2895
ENERGY: 740 189.8364 684.6031 2856.5819 0.0000 -198500.6977 20794.5947 71.6298 0.0000 0.0000 -173903.4518 0.0000 -173903.4518 -173903.4518 0.0000 15818.5303 -5122.6300 534946.2959 15818.5303 -5122.6300
ENERGY: 760 158.0197 649.3010 2850.6741 0.0000 -198586.2387 20827.6028 71.4510 0.0000 0.0000 -174029.1902 0.0000 -174029.1902 -174029.1902 0.0000 15825.2839 -5109.8823 534946.2959 15825.2839 -5109.8823
ENERGY: 780 359.9296 765.5725 2854.5116 0.0000 -199231.7289 21073.2117 76.0328 0.0000 0.0000 -174102.4706 0.0000 -174102.4706 -174102.4706 0.0000 15994.3401 -5054.6845 534946.2959 15994.3401 -5054.6845
ENERGY: 800 179.0728 649.6264 2845.7018 0.0000 -199248.8741 21069.5648 76.7807 0.0000 0.0000 -174428.1277 0.0000 -174428.1277 -174428.1277 0.0000 15933.3022 -5076.8923 534946.2959 15933.3022 -5076.8923
TCL: Setting parameter constraintScaling to 0.0390625
TCL: Minimizing for 100 steps
ETITLE: TS BOND ANGLE DIHED IMPRP ELECT VDW BOUNDARY MISC KINETIC TOTAL TEMP POTENTIAL TOTAL3 TEMPAVG PRESSURE GPRESSURE VOLUME PRESSAVG GPRESSAVG
ENERGY: 800 179.0728 649.6264 2845.7018 0.0000 -199248.8741 21069.5648 38.3903 0.0000 0.0000 -174466.5180 0.0000 -174466.5180 -174466.5180 0.0000 15970.8810 -27124.4719 534946.2959 15970.8810 -27124.4719
ENERGY: 820 162.2936 647.0105 2843.2844 0.0000 -199442.9984 21140.1111 39.3872 0.0000 0.0000 -174610.9117 0.0000 -174610.9117 -174610.9117 0.0000 16019.4595 -5023.3730 534946.2959 16019.4595 -5023.3730
ENERGY: 840 179.7567 661.0814 2842.1052 0.0000 -199914.7252 21310.6874 41.7660 0.0000 0.0000 -174879.3285 0.0000 -174879.3285 -174879.3285 0.0000 16104.2094 -5002.6659 534946.2959 16104.2094 -5002.6659
ENERGY: 860 239.7709 667.2047 2834.0337 0.0000 -200825.5958 21668.0147 46.4889 0.0000 0.0000 -175370.0828 0.0000 -175370.0828 -175370.0828 0.0000 16272.6310 -4933.7094 534946.2959 16272.6310 -4933.7094
ENERGY: 880 168.5131 658.9569 2835.5822 0.0000 -201040.8587 21755.3134 47.3513 0.0000 0.0000 -175575.1418 0.0000 -175575.1418 -175575.1418 0.0000 16304.3034 -4924.7969 534946.2959 16304.3034 -4924.7969
ENERGY: 900 167.9241 652.3905 2828.9057 0.0000 -201471.9076 21927.2045 49.0322 0.0000 0.0000 -175846.4506 0.0000 -175846.4506 -175846.4506 0.0000 16402.2711 -4879.0090 534946.2959 16402.2711 -4879.0090
TCL: Setting parameter constraintScaling to 0.01953125
TCL: Minimizing for 100 steps
ETITLE: TS BOND ANGLE DIHED IMPRP ELECT VDW BOUNDARY MISC KINETIC TOTAL TEMP POTENTIAL TOTAL3 TEMPAVG PRESSURE GPRESSURE VOLUME PRESSAVG GPRESSAVG
ENERGY: 900 167.9241 652.3905 2828.9057 0.0000 -201471.9076 21927.2045 24.5161 0.0000 0.0000 -175870.9668 0.0000 -175870.9668 -175870.9668 0.0000 16424.1335 -27208.4915 534946.2959 16424.1335 -27208.4915
ENERGY: 920 174.9609 663.8474 2828.1574 0.0000 -201724.7979 22018.5176 25.2459 0.0000 0.0000 -176014.0687 0.0000 -176014.0687 -176014.0687 0.0000 16456.4492 -4855.5118 534946.2959 16456.4492 -4855.5118
ENERGY: 940 251.9520 672.6904 2829.8612 0.0000 -202201.1309 22204.6409 26.4898 0.0000 0.0000 -176215.4967 0.0000 -176215.4967 -176215.4967 0.0000 16555.3281 -4822.3495 534946.2959 16555.3281 -4822.3495
ENERGY: 960 163.7267 652.2829 2822.9516 0.0000 -202524.3154 22337.5424 27.3741 0.0000 0.0000 -176520.4376 0.0000 -176520.4376 -176520.4376 0.0000 16623.3165 -4784.1709 534946.2959 16623.3165 -4784.1709
ENERGY: 980 253.6584 664.6284 2821.7214 0.0000 -202926.6352 22509.2974 28.2637 0.0000 0.0000 -176649.0660 0.0000 -176649.0660 -176649.0660 0.0000 16707.9004 -4739.3103 534946.2959 16707.9004 -4739.3103
ENERGY: 1000 191.1301 672.7249 2816.8256 0.0000 -203863.1722 22936.6557 30.6380 0.0000 0.0000 -177215.1979 0.0000 -177215.1979 -177215.1979 0.0000 16915.5405 -4645.3867 534946.2959 16915.5405 -4645.3867
TCL: Setting parameter constraintScaling to 0
TCL: Minimizing for 5000 steps
ETITLE: TS BOND ANGLE DIHED IMPRP ELECT VDW BOUNDARY MISC KINETIC TOTAL TEMP POTENTIAL TOTAL3 TEMPAVG PRESSURE GPRESSURE VOLUME PRESSAVG GPRESSAVG
ENERGY: 1000 191.1301 672.7249 2816.8256 0.0000 -203863.1722 22936.6557 0.0000 0.0000 0.0000 -177245.8359 0.0000 -177245.8359 -177245.8359 0.0000 16940.7645 -27268.5772 534946.2959 16940.7645 -27268.5772
ENERGY: 2000 168.9912 660.1357 2799.7445 0.0000 -214229.3240 27527.7854 0.0000 0.0000 0.0000 -183072.6672 0.0000 -183072.6672 -183072.6672 0.0000 19387.2835 -3353.7434 534946.2959 19387.2835 -3353.7434
ENERGY: 3000 168.1577 665.1081 2793.1794 0.0000 -217428.5145 28868.2059 0.0000 0.0000 0.0000 -184933.8633 0.0000 -184933.8633 -184933.8633 0.0000 20091.7313 -2711.7918 534946.2959 20091.7313 -2711.7918
ENERGY: 4000 166.5256 664.8679 2793.1919 0.0000 -218725.5436 29422.1080 0.0000 0.0000 0.0000 -185678.8503 0.0000 -185678.8503 -185678.8503 0.0000 20396.0726 -2539.3807 534946.2959 20396.0726 -2539.3807
ENERGY: 5000 165.5635 663.8385 2791.6633 0.0000 -219394.5422 29666.3117 0.0000 0.0000 0.0000 -186107.1653 0.0000 -186107.1653 -186107.1653 0.0000 20521.8334 -2487.1696 534946.2959 20521.8334 -2487.1696
ENERGY: 6000 164.7338 662.6924 2790.1607 0.0000 -219729.0972 29781.4279 0.0000 0.0000 0.0000 -186330.0825 0.0000 -186330.0825 -186330.0825 0.0000 20586.7699 -2457.3238 534946.2959 20586.7699 -2457.3238
