Info: SIMULATION PARAMETERS:
Info: TIMESTEP               2
Info: NUMBER OF STEPS        0
Info: STEPS PER CYCLE        10
Info: PERIODIC CELL BASIS 1  72.449 0 0
Info: PERIODIC CELL BASIS 2  0 93.247 0
Info: PERIODIC CELL BASIS 3  0 0 79.185
Info: PERIODIC CELL CENTER   -0.248 -0.156 -0.047
Info: WRAPPING WATERS AROUND PERIODIC BOUNDARIES ON OUTPUT.
Info: WRAPPING ALL CLUSTERS AROUND PERIODIC BOUNDARIES ON OUTPUT.
Info: FIRST LDB TIMESTEP     50
Info: LAST LDB TIMESTEP     -1
Info: HOM BACKGROUND SCALING 1
Info: PME BACKGROUND SCALING 1
Info: MIN ATOMS PER PATCH    40
Info: INITIAL TEMPERATURE    0
Info: CENTER OF MASS MOVING INITIALLY? NO
Info: DIELECTRIC             1
Info: EXCLUDE                SCALED ONE-FOUR
Info: 1-4 ELECTROSTATICS SCALED BY 0.833333
Info: MODIFIED 1-4 VDW PARAMETERS WILL BE USED
Info: NO DCD TRAJECTORY OUTPUT
Info: NO EXTENDED SYSTEM TRAJECTORY OUTPUT
Info: NO VELOCITY DCD OUTPUT
Info: NO FORCE DCD OUTPUT
Info: OUTPUT FILENAME        ../replicas/rep29/equilibration/eq0
Info: NO RESTART FILE
Info: SWITCHING ACTIVE
Info: SWITCHING ON           10
Info: SWITCHING OFF          12
Info: PAIRLIST DISTANCE      13.5
Info: PAIRLIST SHRINK RATE   0.01
Info: PAIRLIST GROW RATE     0.01
Info: PAIRLIST TRIGGER       0.3
Info: PAIRLISTS PER CYCLE    2
Info: PAIRLISTS ENABLED
Info: MARGIN                 0
Info: HYDROGEN GROUP CUTOFF  2.5
Info: PATCH DIMENSION        16
Info: ENERGY OUTPUT STEPS    500
Info: CROSSTERM ENERGY INCLUDED IN DIHEDRAL
Info: TIMING OUTPUT STEPS    5000
Info: PRESSURE OUTPUT STEPS  500
Info: HARMONIC CONSTRAINTS ACTIVE
Info: HARMONIC CONS EXP      2
Info: HARMONIC CONS SCALING  10
Info: CONJUGATE GRADIENT MINIMIZATION ACTIVE
Info: LINE MINIMIZATION GOAL = 0.001
Info: BABY STEP SIZE = 0.01
Info: TINY STEP SIZE = 1e-06
Info: PARTICLE MESH EWALD (PME) ACTIVE
Info: PME TOLERANCE               1e-06
Info: PME EWALD COEFFICIENT       0.257952
Info: PME INTERPOLATION ORDER     4
Info: PME GRID DIMENSIONS         80 96 80
Info: PME MAXIMUM GRID SPACING    1
Info: FULL ELECTROSTATIC EVALUATION FREQUENCY      2
Info: USING VERLET I (r-RESPA) MTS SCHEME.
Info: C1 SPLITTING OF LONG RANGE ELECTROSTATICS
Info: PLACING ATOMS IN PATCHES BY HYDROGEN GROUPS
Info: RIGID BONDS TO HYDROGEN : ALL
Info:         ERROR TOLERANCE : 1e-05
Info:          MAX ITERATIONS : 100
Info: RIGID WATER USING SETTLE ALGORITHM
Info: RANDOM NUMBER SEED     1503692269
Info: USE HYDROGEN BONDS?    NO
Info: Using AMBER format force field!
Info: AMBER PARM FILE        ../build/complex.top
Info: COORDINATE PDB         ../build/complex.pdb
Info: Exclusions in PARM file will be ignored!
Info: SCNB (VDW SCALING)     2
Info: USING ARITHMETIC MEAN TO COMBINE L-J SIGMA PARAMETERS
Info: SUMMARY OF PARAMETERS:
Info: 71 BONDS
Info: 145 ANGLES
Info: 76 DIHEDRAL
Info: 0 IMPROPER
Info: 0 CROSSTERM
Info: 0 VDW
Info: 190 VDW_PAIRS
Info: 0 NBTHOLE_PAIRS
Info: STRUCTURE SUMMARY:
Info: 49394 ATOMS
Info: 49448 BONDS
Info: 8698 ANGLES
Info: 18780 DIHEDRALS
Info: 0 IMPROPERS
Info: 0 CROSSTERMS
Info: 0 EXCLUSIONS
Info: 2336 CONSTRAINTS
Info: 47058 RIGID BONDS
Info: 101124 DEGREES OF FREEDOM
Info: 17225 HYDROGEN GROUPS
Info: 4 ATOMS IN LARGEST HYDROGEN GROUP
Info: 17225 MIGRATION GROUPS
Info: 4 ATOMS IN LARGEST MIGRATION GROUP
Info: TOTAL MASS = 301478 amu
Info: TOTAL CHARGE = 1.00115e-05 e
Info: MASS DENSITY = 0.935846 g/cm^3
Info: ATOM DENSITY = 0.0923345 atoms/A^3
Info: ADDED 70656 IMPLICIT EXCLUSIONS
Info: NONBONDED TABLE R-SQUARED SPACING: 0.0625
Info: NONBONDED TABLE SIZE: 769 POINTS
Info: REMOVING COM VELOCITY 0 0 0
TCL: Minimizing for 100 steps
ETITLE: TS BOND ANGLE DIHED IMPRP ELECT VDW BOUNDARY MISC KINETIC TOTAL TEMP POTENTIAL TOTAL3 TEMPAVG PRESSURE GPRESSURE VOLUME PRESSAVG GPRESSAVG
ENERGY: 0 155.4176 1012.2698 2855.7272 0.0000 -154496.7913 207729.2052 0.0468 0.0000 0.0000 57255.8753 0.0000 57255.8753 57255.8753 0.0000 116350.2532 86546.1670 534946.2959 116350.2532 86546.1670
ENERGY: 20 304.7555 935.7912 2893.4663 0.0000 -158672.9410 17936.6592 143.9454 0.0000 0.0000 -136458.3233 0.0000 -136458.3233 -136458.3233 0.0000 16523.9385 -239.4560 534946.2959 16523.9385 -239.4560
ENERGY: 40 198.7464 799.5730 2896.9273 0.0000 -162811.4531 16417.9537 221.3031 0.0000 0.0000 -142276.9496 0.0000 -142276.9496 -142276.9496 0.0000 15011.2703 -2135.4698 534946.2959 15011.2703 -2135.4698
ENERGY: 60 130.5280 715.3439 2898.2166 0.0000 -167496.1596 15446.7535 315.2797 0.0000 0.0000 -147990.0379 0.0000 -147990.0379 -147990.0379 0.0000 13793.8831 -3799.3995 534946.2959 13793.8831 -3799.3995
ENERGY: 80 431.2721 765.6304 2904.3788 0.0000 -169937.5398 15121.1512 372.0124 0.0000 0.0000 -150343.0948 0.0000 -150343.0948 -150343.0948 0.0000 13270.3281 -4577.2484 534946.2959 13270.3281 -4577.2484
ENERGY: 100 129.7117 708.0640 2904.2781 0.0000 -171050.0634 15018.6543 384.2001 0.0000 0.0000 -151905.1552 0.0000 -151905.1552 -151905.1552 0.0000 13092.9135 -4843.6298 534946.2959 13092.9135 -4843.6298
TCL: Setting parameter constraintScaling to 5.0
TCL: Minimizing for 100 steps
ETITLE: TS BOND ANGLE DIHED IMPRP ELECT VDW BOUNDARY MISC KINETIC TOTAL TEMP POTENTIAL TOTAL3 TEMPAVG PRESSURE GPRESSURE VOLUME PRESSAVG GPRESSAVG
ENERGY: 100 129.7117 708.0640 2904.2781 0.0000 -171050.0633 15018.6543 192.1000 0.0000 0.0000 -152097.2552 0.0000 -152097.2552 -152097.2552 0.0000 13703.5086 -22944.4532 534946.2959 13703.5086 -22944.4532
ENERGY: 120 118.6816 680.2874 2909.9066 0.0000 -172396.3036 14830.1212 259.9547 0.0000 0.0000 -153597.3522 0.0000 -153597.3522 -153597.3522 0.0000 13320.9490 -4756.3046 534946.2959 13320.9490 -4756.3046
ENERGY: 140 109.1474 671.1472 2912.0863 0.0000 -174830.2054 14716.1443 337.7292 0.0000 0.0000 -156083.9510 0.0000 -156083.9510 -156083.9510 0.0000 12908.9670 -5423.1324 534946.2959 12908.9670 -5423.1324
ENERGY: 160 302.9396 691.3205 2915.1727 0.0000 -176082.7223 14739.2755 369.8460 0.0000 0.0000 -157064.1679 0.0000 -157064.1679 -157064.1679 0.0000 12780.5412 -5680.2894 534946.2959 12780.5412 -5680.2894
ENERGY: 180 182.1117 640.8156 2917.0632 0.0000 -177289.9695 14805.1233 391.9064 0.0000 0.0000 -158352.9493 0.0000 -158352.9493 -158352.9493 0.0000 12715.3886 -5869.4131 534946.2959 12715.3886 -5869.4131
ENERGY: 200 152.9068 659.4110 2924.2781 0.0000 -179513.7630 15069.0695 444.5997 0.0000 0.0000 -160263.4979 0.0000 -160263.4979 -160263.4979 0.0000 12655.5363 -6165.4132 534946.2959 12655.5363 -6165.4132
TCL: Setting parameter constraintScaling to 2.5
TCL: Minimizing for 100 steps
ETITLE: TS BOND ANGLE DIHED IMPRP ELECT VDW BOUNDARY MISC KINETIC TOTAL TEMP POTENTIAL TOTAL3 TEMPAVG PRESSURE GPRESSURE VOLUME PRESSAVG GPRESSAVG
ENERGY: 200 152.9068 659.4110 2924.2781 0.0000 -179513.7630 15069.0695 222.2999 0.0000 0.0000 -160485.7978 0.0000 -160485.7978 -160485.7978 0.0000 13203.3963 -25275.8429 534946.2959 13203.3963 -25275.8429
ENERGY: 220 471.3408 751.4241 2935.8569 0.0000 -180621.4749 15113.1581 323.5735 0.0000 0.0000 -161026.1215 0.0000 -161026.1215 -161026.1215 0.0000 12844.8597 -6080.3813 534946.2959 12844.8597 -6080.3813
ENERGY: 240 126.6145 651.1075 2922.2872 0.0000 -181013.2942 15205.7468 307.9335 0.0000 0.0000 -161799.6047 0.0000 -161799.6047 -161799.6047 0.0000 13026.3279 -5967.4247 534946.2959 13026.3279 -5967.4247
ENERGY: 260 115.9785 615.4516 2920.9416 0.0000 -181779.5807 15338.0079 332.4392 0.0000 0.0000 -162456.7620 0.0000 -162456.7620 -162456.7620 0.0000 12986.4361 -6076.9435 534946.2959 12986.4361 -6076.9435
ENERGY: 280 286.5990 711.4837 2935.6339 0.0000 -183133.9768 15616.9307 402.6236 0.0000 0.0000 -163180.7059 0.0000 -163180.7059 -163180.7059 0.0000 12942.1667 -6271.1114 534946.2959 12942.1667 -6271.1114
ENERGY: 300 159.2835 634.8941 2923.6863 0.0000 -184166.5330 15903.5828 419.9248 0.0000 0.0000 -164125.1616 0.0000 -164125.1616 -164125.1616 0.0000 13060.7616 -6265.7015 534946.2959 13060.7616 -6265.7015
TCL: Setting parameter constraintScaling to 1.25
TCL: Minimizing for 100 steps
ETITLE: TS BOND ANGLE DIHED IMPRP ELECT VDW BOUNDARY MISC KINETIC TOTAL TEMP POTENTIAL TOTAL3 TEMPAVG PRESSURE GPRESSURE VOLUME PRESSAVG GPRESSAVG
ENERGY: 300 159.2835 634.8941 2923.6863 0.0000 -184166.5330 15903.5828 209.9624 0.0000 0.0000 -164335.1240 0.0000 -164335.1240 -164335.1240 0.0000 13472.6206 -26071.9586 534946.2959 13472.6206 -26071.9586
ENERGY: 320 266.9274 747.4666 2925.6480 0.0000 -185195.4063 16147.3640 268.6379 0.0000 0.0000 -164839.3625 0.0000 -164839.3625 -164839.3625 0.0000 13410.7770 -6027.8300 534946.2959 13410.7770 -6027.8300
ENERGY: 340 141.1453 678.2836 2924.4239 0.0000 -186139.7342 16397.8911 296.6237 0.0000 0.0000 -165701.3665 0.0000 -165701.3665 -165701.3665 0.0000 13487.6509 -6054.3196 534946.2959 13487.6509 -6054.3196
ENERGY: 360 150.7904 673.2541 2915.3124 0.0000 -187212.0963 16736.8973 324.5588 0.0000 0.0000 -166411.2832 0.0000 -166411.2832 -166411.2832 0.0000 13615.6927 -6057.4308 534946.2959 13615.6927 -6057.4308
ENERGY: 380 159.9649 695.6503 2905.4769 0.0000 -187806.8089 16954.8891 333.9083 0.0000 0.0000 -166756.9194 0.0000 -166756.9194 -166756.9194 0.0000 13661.4451 -6054.2699 534946.2959 13661.4451 -6054.2699
ENERGY: 400 217.2740 826.3992 2912.3590 0.0000 -189634.1362 17591.8554 394.8998 0.0000 0.0000 -167691.3488 0.0000 -167691.3488 -167691.3488 0.0000 13915.8753 -6041.3557 534946.2959 13915.8753 -6041.3557
TCL: Setting parameter constraintScaling to 0.625
TCL: Minimizing for 100 steps
ETITLE: TS BOND ANGLE DIHED IMPRP ELECT VDW BOUNDARY MISC KINETIC TOTAL TEMP POTENTIAL TOTAL3 TEMPAVG PRESSURE GPRESSURE VOLUME PRESSAVG GPRESSAVG
ENERGY: 400 217.2740 826.3992 2912.3590 0.0000 -189634.1362 17591.8554 197.4499 0.0000 0.0000 -167888.7987 0.0000 -167888.7987 -167888.7987 0.0000 14212.3081 -26629.2159 534946.2959 14212.3081 -26629.2159
ENERGY: 420 179.2458 658.8739 2897.6129 0.0000 -190071.1740 17717.2241 206.9777 0.0000 0.0000 -168411.2396 0.0000 -168411.2396 -168411.2396 0.0000 14263.3368 -5744.6936 534946.2959 14263.3368 -5744.6936
ENERGY: 440 186.7302 670.1190 2902.3453 0.0000 -190523.7283 17877.2445 220.2148 0.0000 0.0000 -168667.0745 0.0000 -168667.0745 -168667.0745 0.0000 14268.4829 -5753.7713 534946.2959 14268.4829 -5753.7713
ENERGY: 460 147.1372 653.2705 2895.2543 0.0000 -190983.5892 18021.6309 235.5376 0.0000 0.0000 -169030.7587 0.0000 -169030.7587 -169030.7587 0.0000 14347.7158 -5758.9231 534946.2959 14347.7158 -5758.9231
ENERGY: 480 166.6872 688.0732 2892.7901 0.0000 -191462.4282 18185.7473 254.2251 0.0000 0.0000 -169274.9053 0.0000 -169274.9053 -169274.9053 0.0000 14323.2765 -5805.5445 534946.2959 14323.2765 -5805.5445
ENERGY: 500 233.8790 852.4547 2918.8296 0.0000 -192694.6991 18656.7097 292.7495 0.0000 0.0000 -169740.0766 0.0000 -169740.0766 -169740.0766 0.0000 14598.2578 -5712.8845 534946.2959 14598.2578 -5712.8845
TCL: Setting parameter constraintScaling to 0.3125
TCL: Minimizing for 100 steps
ETITLE: TS BOND ANGLE DIHED IMPRP ELECT VDW BOUNDARY MISC KINETIC TOTAL TEMP POTENTIAL TOTAL3 TEMPAVG PRESSURE GPRESSURE VOLUME PRESSAVG GPRESSAVG
ENERGY: 500 233.8790 852.4547 2918.8296 0.0000 -192694.6991 18656.7097 146.3747 0.0000 0.0000 -169886.4514 0.0000 -169886.4514 -169886.4514 0.0000 14786.0845 -26772.7707 534946.2959 14786.0845 -26772.7707
ENERGY: 520 156.9991 654.9805 2888.7410 0.0000 -192871.2418 18705.0828 146.9947 0.0000 0.0000 -170318.4435 0.0000 -170318.4435 -170318.4435 0.0000 14729.6346 -5559.3862 534946.2959 14729.6346 -5559.3862
ENERGY: 540 154.0407 655.4869 2886.2565 0.0000 -193189.6351 18828.3710 151.9379 0.0000 0.0000 -170513.5420 0.0000 -170513.5420 -170513.5420 0.0000 14830.6139 -5509.0624 534946.2959 14830.6139 -5509.0624
ENERGY: 560 159.1647 693.0835 2887.7762 0.0000 -194187.5781 19206.9600 178.3861 0.0000 0.0000 -171062.2076 0.0000 -171062.2076 -171062.2076 0.0000 14950.9103 -5498.7500 534946.2959 14950.9103 -5498.7500
ENERGY: 580 157.5016 664.8516 2873.3984 0.0000 -195117.3642 19567.7902 204.5375 0.0000 0.0000 -171649.2849 0.0000 -171649.2849 -171649.2849 0.0000 15089.1386 -5461.6739 534946.2959 15089.1386 -5461.6739
ENERGY: 600 166.9910 673.1009 2873.8820 0.0000 -195472.1033 19689.8746 204.9360 0.0000 0.0000 -171863.3187 0.0000 -171863.3187 -171863.3187 0.0000 15157.1722 -5437.2663 534946.2959 15157.1722 -5437.2663
TCL: Setting parameter constraintScaling to 0.15625
TCL: Minimizing for 100 steps
ETITLE: TS BOND ANGLE DIHED IMPRP ELECT VDW BOUNDARY MISC KINETIC TOTAL TEMP POTENTIAL TOTAL3 TEMPAVG PRESSURE GPRESSURE VOLUME PRESSAVG GPRESSAVG
ENERGY: 600 166.9910 673.1009 2873.8820 0.0000 -195472.1033 19689.8746 102.4680 0.0000 0.0000 -171965.7867 0.0000 -171965.7867 -171965.7867 0.0000 15273.6496 -26934.2078 534946.2959 15273.6496 -26934.2078
ENERGY: 620 160.0945 654.2042 2868.9757 0.0000 -195641.2968 19749.3125 105.2410 0.0000 0.0000 -172103.4690 0.0000 -172103.4690 -172103.4690 0.0000 15273.6307 -5334.9742 534946.2959 15273.6307 -5334.9742
ENERGY: 640 188.0034 735.9066 2872.7140 0.0000 -196409.4203 20054.3273 117.6082 0.0000 0.0000 -172440.8608 0.0000 -172440.8608 -172440.8608 0.0000 15417.4460 -5286.2822 534946.2959 15417.4460 -5286.2822
ENERGY: 660 167.4765 662.4429 2864.0221 0.0000 -196462.5706 20057.1639 117.5775 0.0000 0.0000 -172593.8878 0.0000 -172593.8878 -172593.8878 0.0000 15419.9352 -5283.9012 534946.2959 15419.9352 -5283.9012
ENERGY: 680 166.4600 668.9795 2867.1778 0.0000 -196745.8730 20157.8776 119.9908 0.0000 0.0000 -172765.3874 0.0000 -172765.3874 -172765.3874 0.0000 15470.3384 -5268.3963 534946.2959 15470.3384 -5268.3963
ENERGY: 700 216.8083 718.1943 2873.3057 0.0000 -197423.8733 20417.4891 128.7281 0.0000 0.0000 -173069.3478 0.0000 -173069.3478 -173069.3478 0.0000 15596.3613 -5222.2068 534946.2959 15596.3613 -5222.2068
TCL: Setting parameter constraintScaling to 0.078125
TCL: Minimizing for 100 steps
ETITLE: TS BOND ANGLE DIHED IMPRP ELECT VDW BOUNDARY MISC KINETIC TOTAL TEMP POTENTIAL TOTAL3 TEMPAVG PRESSURE GPRESSURE VOLUME PRESSAVG GPRESSAVG
ENERGY: 700 216.8083 718.1943 2873.3057 0.0000 -197423.8733 20417.4891 64.3640 0.0000 0.0000 -173133.7119 0.0000 -173133.7119 -173133.7119 0.0000 15663.4405 -27008.5121 534946.2959 15663.4405 -27008.5121
ENERGY: 720 349.1311 699.0342 2858.2740 0.0000 -197648.1139 20491.7532 66.5540 0.0000 0.0000 -173183.3674 0.0000 -173183.3674 -173183.3674 0.0000 15639.1209 -5207.2331 534946.2959 15639.1209 -5207.2331
ENERGY: 740 179.9114 674.0533 2856.7798 0.0000 -197918.3895 20597.0381 68.9477 0.0000 0.0000 -173541.6591 0.0000 -173541.6591 -173541.6591 0.0000 15730.8189 -5142.9231 534946.2959 15730.8189 -5142.9231
ENERGY: 760 160.1993 662.2294 2851.1862 0.0000 -198494.5406 20817.0454 74.0625 0.0000 0.0000 -173929.8179 0.0000 -173929.8179 -173929.8179 0.0000 15831.4905 -5107.6188 534946.2959 15831.4905 -5107.6188
ENERGY: 780 161.5793 666.1341 2848.3196 0.0000 -198622.8601 20849.6355 75.0258 0.0000 0.0000 -174022.1658 0.0000 -174022.1658 -174022.1658 0.0000 15841.5216 -5113.0279 534946.2959 15841.5216 -5113.0279
ENERGY: 800 191.5818 699.1825 2862.1734 0.0000 -199091.3040 21030.2879 78.5226 0.0000 0.0000 -174229.5558 0.0000 -174229.5558 -174229.5558 0.0000 15894.1494 -5108.8469 534946.2959 15894.1494 -5108.8469
TCL: Setting parameter constraintScaling to 0.0390625
TCL: Minimizing for 100 steps
ETITLE: TS BOND ANGLE DIHED IMPRP ELECT VDW BOUNDARY MISC KINETIC TOTAL TEMP POTENTIAL TOTAL3 TEMPAVG PRESSURE GPRESSURE VOLUME PRESSAVG GPRESSAVG
ENERGY: 800 191.5818 699.1825 2862.1734 0.0000 -199091.3040 21030.2879 39.2613 0.0000 0.0000 -174268.8171 0.0000 -174268.8171 -174268.8171 0.0000 15932.1164 -27133.8281 534946.2959 15932.1164 -27133.8281
ENERGY: 820 163.5778 648.4127 2845.5728 0.0000 -199238.2688 21069.3935 39.7439 0.0000 0.0000 -174471.5683 0.0000 -174471.5683 -174471.5683 0.0000 15976.8931 -5049.4172 534946.2959 15976.8931 -5049.4172
ENERGY: 840 203.5622 691.3891 2844.4901 0.0000 -199873.2370 21338.7832 43.2454 0.0000 0.0000 -174751.7671 0.0000 -174751.7671 -174751.7671 0.0000 16129.5456 -4970.2609 534946.2959 16129.5456 -4970.2609
ENERGY: 860 175.3867 655.2230 2837.1858 0.0000 -200052.9538 21375.6909 43.9583 0.0000 0.0000 -174965.5091 0.0000 -174965.5091 -174965.5091 0.0000 16106.0528 -5012.7957 534946.2959 16106.0528 -5012.7957
ENERGY: 880 169.0757 673.8501 2842.2429 0.0000 -200290.7063 21455.9611 44.9110 0.0000 0.0000 -175104.6656 0.0000 -175104.6656 -175104.6656 0.0000 16159.3058 -4989.2101 534946.2959 16159.3058 -4989.2101
ENERGY: 900 195.3961 678.0817 2842.0929 0.0000 -200896.0375 21693.3368 47.4635 0.0000 0.0000 -175439.6665 0.0000 -175439.6665 -175439.6665 0.0000 16266.4205 -4954.8155 534946.2959 16266.4205 -4954.8155
TCL: Setting parameter constraintScaling to 0.01953125
TCL: Minimizing for 100 steps
ETITLE: TS BOND ANGLE DIHED IMPRP ELECT VDW BOUNDARY MISC KINETIC TOTAL TEMP POTENTIAL TOTAL3 TEMPAVG PRESSURE GPRESSURE VOLUME PRESSAVG GPRESSAVG
ENERGY: 900 195.3961 678.0817 2842.0929 0.0000 -200896.0375 21693.3368 23.7318 0.0000 0.0000 -175463.3982 0.0000 -175463.3982 -175463.3982 0.0000 16287.8433 -27213.5445 534946.2959 16287.8433 -27213.5445
ENERGY: 920 167.4593 658.8735 2830.9486 0.0000 -201068.3449 21756.5038 24.1736 0.0000 0.0000 -175630.3859 0.0000 -175630.3859 -175630.3859 0.0000 16349.2982 -4898.0053 534946.2959 16349.2982 -4898.0053
ENERGY: 940 171.5084 655.5249 2830.0818 0.0000 -201225.9934 21826.0343 24.6389 0.0000 0.0000 -175718.2051 0.0000 -175718.2051 -175718.2051 0.0000 16359.7392 -4891.8297 534946.2959 16359.7392 -4891.8297
ENERGY: 960 175.0406 663.7706 2826.6983 0.0000 -201789.1907 22052.6358 26.2781 0.0000 0.0000 -176044.7673 0.0000 -176044.7673 -176044.7673 0.0000 16469.6652 -4859.5953 534946.2959 16469.6652 -4859.5953
ENERGY: 980 167.5720 663.1069 2823.6673 0.0000 -202322.1832 22258.4261 27.4965 0.0000 0.0000 -176381.9142 0.0000 -176381.9142 -176381.9142 0.0000 16576.6935 -4816.9547 534946.2959 16576.6935 -4816.9547
ENERGY: 1000 164.5835 659.0043 2824.7258 0.0000 -202413.6042 22298.8023 27.7116 0.0000 0.0000 -176438.7766 0.0000 -176438.7766 -176438.7766 0.0000 16595.3455 -4805.9244 534946.2959 16595.3455 -4805.9244
TCL: Setting parameter constraintScaling to 0
TCL: Minimizing for 5000 steps
ETITLE: TS BOND ANGLE DIHED IMPRP ELECT VDW BOUNDARY MISC KINETIC TOTAL TEMP POTENTIAL TOTAL3 TEMPAVG PRESSURE GPRESSURE VOLUME PRESSAVG GPRESSAVG
ENERGY: 1000 164.5835 659.0043 2824.7258 0.0000 -202413.6042 22298.8023 0.0000 0.0000 0.0000 -176466.4882 0.0000 -176466.4882 -176466.4882 0.0000 16618.9410 -27245.7931 534946.2959 16618.9410 -27245.7931
ENERGY: 2000 171.9816 666.3648 2798.3772 0.0000 -213976.5924 27499.1580 0.0000 0.0000 0.0000 -182840.7108 0.0000 -182840.7108 -182840.7108 0.0000 19381.0841 -3332.1592 534946.2959 19381.0841 -3332.1592
ENERGY: 3000 167.4655 669.0334 2799.5565 0.0000 -217161.6031 28779.4847 0.0000 0.0000 0.0000 -184746.0630 0.0000 -184746.0630 -184746.0630 0.0000 20065.7460 -2703.9096 534946.2959 20065.7460 -2703.9096
ENERGY: 4000 165.9435 666.1415 2795.8819 0.0000 -218384.8926 29249.1197 0.0000 0.0000 0.0000 -185507.8060 0.0000 -185507.8060 -185507.8060 0.0000 20320.0047 -2577.4662 534946.2959 20320.0047 -2577.4662
ENERGY: 5000 166.1275 666.4459 2791.0559 0.0000 -219139.9778 29564.5720 0.0000 0.0000 0.0000 -185951.7766 0.0000 -185951.7766 -185951.7766 0.0000 20473.7692 -2502.7016 534946.2959 20473.7692 -2502.7016
ENERGY: 6000 166.5269 665.7762 2788.6224 0.0000 -219509.8440 29690.8680 0.0000 0.0000 0.0000 -186198.0505 0.0000 -186198.0505 -186198.0505 0.0000 20535.3226 -2471.1569 534946.2959 20535.3226 -2471.1569
