Info: SIMULATION PARAMETERS:
Info: TIMESTEP               1
Info: NUMBER OF STEPS        0
Info: STEPS PER CYCLE        10
Info: PERIODIC CELL BASIS 1  72.449 0 0
Info: PERIODIC CELL BASIS 2  0 93.247 0
Info: PERIODIC CELL BASIS 3  0 0 79.185
Info: PERIODIC CELL CENTER   -0.248 -0.156 -0.047
Info: WRAPPING WATERS AROUND PERIODIC BOUNDARIES ON OUTPUT.
Info: WRAPPING ALL CLUSTERS AROUND PERIODIC BOUNDARIES ON OUTPUT.
Info: FIRST LDB TIMESTEP     50
Info: LAST LDB TIMESTEP     -1
Info: HOM BACKGROUND SCALING 1
Info: PME BACKGROUND SCALING 1
Info: MIN ATOMS PER PATCH    40
Info: VELOCITY FILE          ../replicas/rep31/equilibration/eq1.vel
Info: CENTER OF MASS MOVING INITIALLY? NO
Info: DIELECTRIC             1
Info: EXCLUDE                SCALED ONE-FOUR
Info: 1-4 ELECTROSTATICS SCALED BY 0.833333
Info: MODIFIED 1-4 VDW PARAMETERS WILL BE USED
Info: DCD FILENAME           ../replicas/rep31/equilibration/eq2.dcd
Info: DCD FREQUENCY          5000
Info: DCD FIRST STEP         5000
Info: DCD FILE WILL CONTAIN UNIT CELL DATA
Info: XST FILENAME           ../replicas/rep31/equilibration/eq2.xst
Info: XST FREQUENCY          5000
Info: NO VELOCITY DCD OUTPUT
Info: NO FORCE DCD OUTPUT
Info: OUTPUT FILENAME        ../replicas/rep31/equilibration/eq2
Info: RESTART FILENAME       ../replicas/rep31/equilibration/eq2.restart
Info: RESTART FREQUENCY      5000
Info: BINARY RESTART FILES WILL BE USED
Info: SWITCHING ACTIVE
Info: SWITCHING ON           10
Info: SWITCHING OFF          12
Info: PAIRLIST DISTANCE      13.5
Info: PAIRLIST SHRINK RATE   0.01
Info: PAIRLIST GROW RATE     0.01
Info: PAIRLIST TRIGGER       0.3
Info: PAIRLISTS PER CYCLE    2
Info: PAIRLISTS ENABLED
Info: MARGIN                 0.48
Info: HYDROGEN GROUP CUTOFF  2.5
Info: PATCH DIMENSION        16.48
Info: ENERGY OUTPUT STEPS    500
Info: CROSSTERM ENERGY INCLUDED IN DIHEDRAL
Info: TIMING OUTPUT STEPS    5000
Info: PRESSURE OUTPUT STEPS  500
Info: HARMONIC CONSTRAINTS ACTIVE
Info: HARMONIC CONS EXP      2
Info: HARMONIC CONS SCALING  10
Info: LANGEVIN DYNAMICS ACTIVE
Info: LANGEVIN TEMPERATURE   300
Info: LANGEVIN USING BBK INTEGRATOR
Info: LANGEVIN DAMPING COEFFICIENT IS 5 INVERSE PS
Info: LANGEVIN DYNAMICS NOT APPLIED TO HYDROGENS
Info: BERENDSEN PRESSURE COUPLING ACTIVE
Info:     TARGET PRESSURE IS 1 BAR
Info:     COMPRESSIBILITY ESTIMATE IS 4.57e-05 BAR^(-1)
Info:     RELAXATION TIME IS 100 FS
Info:     APPLIED EVERY 2 STEPS
Info:     PRESSURE CONTROL IS GROUP-BASED
Info:       CELL FLUCTUATION IS ISOTROPIC
Info: PARTICLE MESH EWALD (PME) ACTIVE
Info: PME TOLERANCE               1e-06
Info: PME EWALD COEFFICIENT       0.257952
Info: PME INTERPOLATION ORDER     4
Info: PME GRID DIMENSIONS         80 96 80
Info: PME MAXIMUM GRID SPACING    1
Info: FULL ELECTROSTATIC EVALUATION FREQUENCY      2
Info: USING VERLET I (r-RESPA) MTS SCHEME.
Info: C1 SPLITTING OF LONG RANGE ELECTROSTATICS
Info: PLACING ATOMS IN PATCHES BY HYDROGEN GROUPS
Info: RIGID BONDS TO HYDROGEN : WATER
Info:         ERROR TOLERANCE : 1e-05
Info:          MAX ITERATIONS : 100
Info: RIGID WATER USING SETTLE ALGORITHM
Info: RANDOM NUMBER SEED     1503710199
Info: USE HYDROGEN BONDS?    NO
Info: Using AMBER format force field!
Info: AMBER PARM FILE        ../build/complex.top
Info: COORDINATE PDB         ../replicas/rep31/equilibration/eq1.coor
Info: Exclusions in PARM file will be ignored!
Info: SCNB (VDW SCALING)     2
Info: USING ARITHMETIC MEAN TO COMBINE L-J SIGMA PARAMETERS
Info: SUMMARY OF PARAMETERS:
Info: 71 BONDS
Info: 145 ANGLES
Info: 76 DIHEDRAL
Info: 0 IMPROPER
Info: 0 CROSSTERM
Info: 0 VDW
Info: 190 VDW_PAIRS
Info: 0 NBTHOLE_PAIRS
Info: STRUCTURE SUMMARY:
Info: 49394 ATOMS
Info: 49448 BONDS
Info: 8698 ANGLES
Info: 18780 DIHEDRALS
Info: 0 IMPROPERS
Info: 0 CROSSTERMS
Info: 0 EXCLUSIONS
Info: 2336 CONSTRAINTS
Info: 44667 RIGID BONDS
Info: 103515 DEGREES OF FREEDOM
Info: 17225 HYDROGEN GROUPS
Info: 4 ATOMS IN LARGEST HYDROGEN GROUP
Info: 17225 MIGRATION GROUPS
Info: 4 ATOMS IN LARGEST MIGRATION GROUP
Info: TOTAL MASS = 301478 amu
Info: TOTAL CHARGE = 1.00115e-05 e
Info: MASS DENSITY = 0.935846 g/cm^3
Info: ATOM DENSITY = 0.0923345 atoms/A^3
Info: ADDED 70656 IMPLICIT EXCLUSIONS
Info: NONBONDED TABLE R-SQUARED SPACING: 0.0625
Info: NONBONDED TABLE SIZE: 769 POINTS
Info: REMOVING COM VELOCITY -0.0214079 0.00185046 0.00808295
TCL: Running for 5000 steps
ETITLE: TS BOND ANGLE DIHED IMPRP ELECT VDW BOUNDARY MISC KINETIC TOTAL TEMP POTENTIAL TOTAL3 TEMPAVG PRESSURE GPRESSURE VOLUME PRESSAVG GPRESSAVG
ENERGY: 0 393.6659 1213.3068 2919.4276 0.0000 -212296.3533 29255.3072 0.0000 0.0000 10006.2968 -168508.3491 97.2883 -178514.6458 -168498.6858 97.2883 -2501.6001 -2601.2920 534946.2959 -2501.6001 -2601.2920
ENERGY: 1000 1238.4146 1981.6839 3111.7841 0.0000 -193517.8689 26516.0788 772.8896 0.0000 24144.0720 -135752.9459 234.7457 -159897.0179 -135719.4776 219.3991 -51.8283 -46.0418 520644.0060 -16.7165 -17.3410
ENERGY: 2000 1463.3786 2170.9581 3136.0233 0.0000 -183538.7094 22894.7846 810.2485 0.0000 28001.2899 -125062.0265 272.2483 -153063.3164 -125021.8575 266.1836 -60.1685 -2.1528 514567.5915 -32.3043 -32.2923
ENERGY: 3000 1506.9138 2226.3140 3149.1846 0.0000 -178781.0996 21613.0253 831.5243 0.0000 29508.9586 -119945.1789 286.9069 -149454.1376 -119898.7508 285.2968 30.0430 -24.2493 511850.5843 -15.1271 -14.8242
ENERGY: 4000 1593.7949 2212.9853 3154.1585 0.0000 -176661.9501 20809.9702 802.1345 0.0000 30391.6401 -117697.2666 295.4889 -148088.9067 -117653.8917 293.3491 -85.1472 -37.2125 510032.3313 -10.9678 -10.5842
ENERGY: 5000 1581.6253 2283.5526 3124.1136 0.0000 -176250.2298 20573.0076 793.7594 0.0000 30635.6943 -117258.4770 297.8618 -147894.1713 -117211.4943 297.3833 -49.8253 2.7496 505896.2236 -21.5869 -21.1253
TCL: Setting parameter constraintScaling to 5.0
TCL: Running for 5000 steps
ETITLE: TS BOND ANGLE DIHED IMPRP ELECT VDW BOUNDARY MISC KINETIC TOTAL TEMP POTENTIAL TOTAL3 TEMPAVG PRESSURE GPRESSURE VOLUME PRESSAVG GPRESSAVG
ENERGY: 5000 1581.6253 2283.5526 3124.1136 0.0000 -176250.2298 20573.0076 396.8797 0.0000 30633.6248 -117657.4262 297.8417 -148291.0510 -117613.5662 297.8417 -119.1950 -73.5175 505896.2236 -119.1950 -73.5175
ENERGY: 6000 1604.6006 2272.2631 3155.3125 0.0000 -175616.1092 20390.0932 632.2891 0.0000 30576.7842 -116984.7665 297.2890 -147561.5507 -116932.1286 297.6310 16.5795 -4.3835 505704.2640 3.7728 3.5548
ENERGY: 7000 1564.5059 2334.6686 3203.8699 0.0000 -175820.0343 20271.0930 640.2807 0.0000 30775.7877 -117029.8286 299.2239 -147805.6163 -116984.7192 298.1715 -15.2332 29.1993 501595.3451 -14.2313 -14.4425
ENERGY: 8000 1690.1036 2306.3322 3151.3048 0.0000 -175689.8338 20147.9753 631.6397 0.0000 30662.2650 -117100.2132 298.1201 -147762.4782 -117054.5060 298.6066 -58.8431 -11.6115 501022.7614 1.4217 1.7325
ENERGY: 9000 1555.4099 2335.5355 3146.2888 0.0000 -175760.1967 20270.1673 647.3749 0.0000 30869.7268 -116935.6934 300.1372 -147805.4202 -116891.7260 300.3837 109.1605 -11.1079 502207.8565 9.3648 9.1663
ENERGY: 10000 1626.4296 2230.4757 3152.7053 0.0000 -175663.7880 20276.2585 659.1418 0.0000 30934.5983 -116784.1788 300.7680 -147718.7771 -116734.5497 300.2862 -21.6447 -6.6764 501083.6834 -3.3681 -3.6530
TCL: Setting parameter constraintScaling to 2.5
TCL: Running for 5000 steps
ETITLE: TS BOND ANGLE DIHED IMPRP ELECT VDW BOUNDARY MISC KINETIC TOTAL TEMP POTENTIAL TOTAL3 TEMPAVG PRESSURE GPRESSURE VOLUME PRESSAVG GPRESSAVG
ENERGY: 10000 1626.4296 2230.4757 3152.7053 0.0000 -175663.7880 20276.2585 329.5709 0.0000 30932.5309 -117115.8171 300.7479 -148048.3480 -117072.8337 300.7479 2.2408 12.6431 501083.6834 2.2408 12.6431
ENERGY: 11000 1601.0619 2356.3364 3201.8726 0.0000 -175537.7674 20042.0981 503.5153 0.0000 30747.6797 -117085.2034 298.9506 -147832.8830 -117044.2135 298.6880 -112.8939 -0.8758 499765.5800 2.5047 2.4993
ENERGY: 12000 1608.7783 2334.4208 3178.5137 0.0000 -175346.2803 19887.7312 505.4287 0.0000 30636.3617 -117195.0459 297.8683 -147831.4076 -117144.6540 299.0552 -32.3539 -13.9716 499762.2458 -2.7076 -2.6507
ENERGY: 13000 1609.7371 2386.1402 3153.5585 0.0000 -175832.4085 20341.4274 497.5327 0.0000 30656.7359 -117187.2767 298.0664 -147844.0126 -117146.1680 299.2570 -65.6897 -10.5875 499684.4565 -0.2477 -0.2546
ENERGY: 14000 1611.4248 2324.4256 3164.9341 0.0000 -175882.8722 20000.6507 504.6322 0.0000 30840.0366 -117436.7683 299.8486 -148276.8048 -117394.3656 298.3855 -74.4775 2.2451 499769.4464 -2.9805 -3.2444
ENERGY: 15000 1621.2943 2363.1167 3195.2760 0.0000 -175904.7821 20206.2218 539.5994 0.0000 30862.2727 -117117.0012 300.0648 -147979.2738 -117068.8932 299.5515 -51.4669 -38.9641 498072.2371 4.0940 4.3320
TCL: Setting parameter constraintScaling to 1.25
TCL: Running for 5000 steps
ETITLE: TS BOND ANGLE DIHED IMPRP ELECT VDW BOUNDARY MISC KINETIC TOTAL TEMP POTENTIAL TOTAL3 TEMPAVG PRESSURE GPRESSURE VOLUME PRESSAVG GPRESSAVG
ENERGY: 15000 1621.2943 2363.1167 3195.2760 0.0000 -175904.7821 20206.2218 269.7997 0.0000 30860.2094 -117388.8642 300.0447 -148249.0736 -117344.4199 300.0447 -24.7215 -8.9622 498072.2371 -24.7215 -8.9622
ENERGY: 16000 1612.8046 2412.8153 3180.3763 0.0000 -175633.1871 20196.2081 391.5323 0.0000 30936.4467 -116903.0038 300.7859 -147839.4505 -116859.3903 300.4455 72.0736 -16.3536 499682.7798 2.9172 3.3460
ENERGY: 17000 1627.1712 2362.7894 3192.5654 0.0000 -175571.2692 20106.1191 409.6722 0.0000 30681.2363 -117191.7156 298.3046 -147872.9519 -117140.4807 299.7087 -22.7531 -13.7623 500217.4581 -2.4833 -2.8582
ENERGY: 18000 1603.8680 2364.4341 3174.6047 0.0000 -175872.0026 20334.2479 389.0319 0.0000 30668.3504 -117337.4658 298.1793 -148005.8161 -117301.0912 299.9478 14.6456 42.9076 499709.3854 -9.8565 -9.7224
ENERGY: 19000 1598.5214 2382.0863 3189.9969 0.0000 -175719.6681 19962.2621 410.8923 0.0000 30983.1586 -117192.7504 301.2401 -148175.9090 -117147.3280 299.3641 84.5477 -10.3886 498989.6386 -7.6282 -7.1289
ENERGY: 20000 1616.2703 2407.6155 3196.8639 0.0000 -175893.0602 20137.6165 424.0383 0.0000 30717.1542 -117393.5014 298.6538 -148110.6557 -117355.9539 299.9538 -62.2726 38.0942 498245.3797 -10.1261 -9.4645
TCL: Setting parameter constraintScaling to 0.625
TCL: Running for 5000 steps
ETITLE: TS BOND ANGLE DIHED IMPRP ELECT VDW BOUNDARY MISC KINETIC TOTAL TEMP POTENTIAL TOTAL3 TEMPAVG PRESSURE GPRESSURE VOLUME PRESSAVG GPRESSAVG
ENERGY: 20000 1616.2703 2407.6155 3196.8639 0.0000 -175893.0602 20137.6165 212.0192 0.0000 30715.1010 -117607.5738 298.6339 -148322.6748 -117565.4873 298.6339 -105.1743 -7.0779 498245.3797 -105.1743 -7.0779
ENERGY: 21000 1677.0781 2416.0059 3180.8503 0.0000 -175705.8978 20039.8924 320.3532 0.0000 30682.4305 -117389.2873 298.3162 -148071.7178 -117341.4733 299.6669 -31.6174 64.3059 498613.3555 12.4573 12.4726
ENERGY: 22000 1659.2424 2426.0605 3196.6184 0.0000 -175642.5381 20052.5043 312.2437 0.0000 30717.8597 -117278.0091 298.6607 -147995.8688 -117236.1845 299.2492 66.5100 43.6356 499136.1823 14.5391 14.4126
ENERGY: 23000 1612.0203 2322.8271 3214.0340 0.0000 -175234.7849 19903.5004 310.5896 0.0000 30651.0495 -117220.7640 298.0111 -147871.8135 -117180.7717 299.4092 -108.3618 -20.0441 498863.2677 6.2753 5.8816
ENERGY: 24000 1626.7274 2436.9267 3207.6536 0.0000 -175683.3248 20147.3632 320.4268 0.0000 30841.6383 -117102.5888 299.8641 -147944.2271 -117047.5304 300.1031 1.3081 -31.3195 498508.1448 -0.2829 -0.8300
ENERGY: 25000 1681.2623 2357.2506 3179.7331 0.0000 -175897.8924 20300.1908 315.2382 0.0000 30872.9621 -117191.2553 300.1687 -148064.2173 -117143.6383 299.1331 -85.1215 -19.2611 499836.1800 15.3684 15.0236
TCL: Setting parameter constraintScaling to 0.3125
TCL: Running for 5000 steps
ETITLE: TS BOND ANGLE DIHED IMPRP ELECT VDW BOUNDARY MISC KINETIC TOTAL TEMP POTENTIAL TOTAL3 TEMPAVG PRESSURE GPRESSURE VOLUME PRESSAVG GPRESSAVG
ENERGY: 25000 1681.2623 2357.2506 3179.7331 0.0000 -175897.8924 20300.1908 157.6191 0.0000 30870.8764 -117350.9600 300.1484 -148221.8365 -117305.8451 300.1484 -70.5698 -13.3625 499836.1800 -70.5698 -13.3625
ENERGY: 26000 1645.8069 2398.9415 3210.9907 0.0000 -175520.1089 19925.9006 249.5585 0.0000 30843.5365 -117245.3743 299.8826 -148088.9108 -117207.6262 299.8523 -29.3937 16.4305 498531.5001 -6.5788 -6.5057
ENERGY: 27000 1673.7304 2391.2004 3204.8451 0.0000 -175989.8862 20186.7164 247.3696 0.0000 30850.5478 -117435.4765 299.9508 -148286.0243 -117394.5000 299.9500 11.5284 114.9539 497350.6083 -0.7752 -0.3746
ENERGY: 28000 1630.7476 2356.8200 3206.3812 0.0000 -175627.0671 20021.8900 250.5190 0.0000 30870.2802 -117290.4291 300.1426 -148160.7093 -117239.9651 299.5010 -86.9790 -70.4943 497836.5214 2.0873 1.5810
ENERGY: 29000 1637.6804 2409.3719 3189.7735 0.0000 -176304.4370 20264.3863 261.0645 0.0000 30873.5109 -117668.6494 300.1740 -148542.1604 -117623.9491 299.0480 148.0630 101.3150 497266.4853 -15.2662 -15.2303
ENERGY: 30000 1671.4503 2403.1171 3220.5885 0.0000 -175998.9167 20120.7253 260.2691 0.0000 30809.1552 -117513.6112 299.5483 -148322.7664 -117478.2793 299.0683 -59.1037 -28.3989 498583.2507 2.5666 2.7820
TCL: Setting parameter constraintScaling to 0.15625
TCL: Running for 5000 steps
ETITLE: TS BOND ANGLE DIHED IMPRP ELECT VDW BOUNDARY MISC KINETIC TOTAL TEMP POTENTIAL TOTAL3 TEMPAVG PRESSURE GPRESSURE VOLUME PRESSAVG GPRESSAVG
ENERGY: 30000 1671.4503 2403.1171 3220.5885 0.0000 -175998.9167 20120.7253 130.1345 0.0000 30807.0956 -117645.8053 299.5283 -148452.9010 -117605.0993 299.5283 -105.3839 -79.8156 498583.2507 -105.3839 -79.8156
ENERGY: 31000 1630.8333 2425.7630 3194.8952 0.0000 -175392.9176 19791.0047 174.5511 0.0000 30850.7783 -117325.0921 299.9530 -148175.8704 -117289.9999 299.3567 -11.0708 -41.6921 497656.0308 -0.1658 0.4403
ENERGY: 32000 1642.2075 2412.5587 3225.9318 0.0000 -175831.0892 19851.2077 166.0212 0.0000 30946.7611 -117586.4012 300.8862 -148533.1623 -117544.4572 298.5797 -11.0589 -25.4627 497386.4099 -7.8016 -7.0709
ENERGY: 33000 1676.0577 2397.7320 3190.3972 0.0000 -176323.1838 20108.4054 190.7671 0.0000 30849.1518 -117910.6727 299.9372 -148759.8245 -117860.5756 298.8540 -23.0878 -9.0628 496038.0419 -6.0382 -6.0060
ENERGY: 34000 1668.0377 2360.7883 3221.7804 0.0000 -175838.9913 19972.9387 192.5946 0.0000 30946.5442 -117476.3073 300.8841 -148422.8516 -117424.7834 299.0959 -10.1404 -50.5664 497248.5104 0.9916 1.4262
ENERGY: 35000 1671.9902 2432.8411 3221.5815 0.0000 -175794.1367 19986.6199 196.3691 0.0000 30811.2449 -117473.4899 299.5686 -148284.7348 -117437.2487 299.4267 39.2036 83.8683 496518.5771 -7.5578 -7.7678
TCL: Setting parameter constraintScaling to 0.078125
TCL: Running for 5000 steps
ETITLE: TS BOND ANGLE DIHED IMPRP ELECT VDW BOUNDARY MISC KINETIC TOTAL TEMP POTENTIAL TOTAL3 TEMPAVG PRESSURE GPRESSURE VOLUME PRESSAVG GPRESSAVG
ENERGY: 35000 1671.9902 2432.8411 3221.5815 0.0000 -175794.1367 19986.6199 98.1846 0.0000 30809.2002 -117573.7192 299.5488 -148382.9194 -117531.4374 299.5488 16.5247 60.6625 496518.5771 16.5247 60.6625
ENERGY: 36000 1622.5318 2422.7716 3230.0796 0.0000 -175764.9492 20074.9279 145.5474 0.0000 30770.8290 -117498.2620 299.1757 -148269.0910 -117458.6394 299.9880 -77.2579 34.7226 495966.9859 -4.5704 -4.5854
ENERGY: 37000 1568.1412 2378.4804 3202.9107 0.0000 -175789.7486 19993.6744 147.0309 0.0000 30653.8167 -117845.6944 298.0380 -148499.5111 -117799.9566 298.1890 -49.9419 4.6329 495205.3241 1.7986 1.8794
ENERGY: 38000 1626.9987 2416.9100 3249.6559 0.0000 -175879.6206 19924.0592 158.2767 0.0000 30577.9517 -117925.7684 297.3004 -148503.7201 -117880.3610 298.4755 -56.7261 -31.5688 495878.7651 -0.5074 -0.6749
ENERGY: 39000 1614.2211 2410.1862 3219.2573 0.0000 -175720.7523 19965.3108 150.5251 0.0000 30635.0109 -117726.2409 297.8552 -148361.2518 -117680.6064 298.1470 75.4750 77.4932 494569.2830 1.1152 1.6460
ENERGY: 40000 1695.4865 2378.1436 3239.9093 0.0000 -175772.5679 19941.2111 174.8915 0.0000 30842.0145 -117500.9113 299.8678 -148342.9258 -117449.3728 299.9373 -98.2433 8.4530 494567.1111 -5.3053 -5.0992
TCL: Setting parameter constraintScaling to 0.0390625
TCL: Running for 5000 steps
ETITLE: TS BOND ANGLE DIHED IMPRP ELECT VDW BOUNDARY MISC KINETIC TOTAL TEMP POTENTIAL TOTAL3 TEMPAVG PRESSURE GPRESSURE VOLUME PRESSAVG GPRESSAVG
ENERGY: 40000 1695.4865 2378.1436 3239.9093 0.0000 -175772.5679 19941.2111 87.4458 0.0000 30839.9747 -117590.3969 299.8480 -148430.3715 -117547.2433 299.8480 -85.8064 17.8065 494567.1111 -85.8064 17.8065
ENERGY: 41000 1619.0574 2378.3028 3206.8049 0.0000 -175769.7500 19859.3415 106.8533 0.0000 31183.1767 -117416.2134 303.1848 -148599.3901 -117360.9148 301.0682 -148.2259 -116.1593 495355.1244 5.0187 4.4631
ENERGY: 42000 1662.0259 2457.7509 3229.8860 0.0000 -176081.7527 20124.2573 112.0195 0.0000 30528.2435 -117967.5696 296.8171 -148495.8130 -117929.3679 298.8810 82.9570 97.7435 495213.3597 -3.0027 -2.6467
ENERGY: 43000 1606.7000 2364.8810 3193.6797 0.0000 -175752.8438 19992.7833 116.0170 0.0000 30913.9518 -117564.8310 300.5672 -148478.7828 -117534.2719 299.4914 -35.9658 41.1007 495310.6015 -10.8789 -11.4055
ENERGY: 44000 1631.6731 2380.5556 3222.3649 0.0000 -175983.9825 20054.7417 132.2806 0.0000 30809.1523 -117753.2143 299.5483 -148562.3667 -117704.4640 300.1582 -125.0242 -87.1520 496435.9822 -5.6217 -5.2240
ENERGY: 45000 1600.1520 2390.3816 3225.9624 0.0000 -175904.3382 19978.2085 129.5175 0.0000 30807.7366 -117772.3797 299.5345 -148580.1163 -117724.2441 298.7615 20.2865 82.3165 496639.8317 3.4381 3.3558
TCL: Setting parameter constraintScaling to 0.01953125
TCL: Running for 5000 steps
ETITLE: TS BOND ANGLE DIHED IMPRP ELECT VDW BOUNDARY MISC KINETIC TOTAL TEMP POTENTIAL TOTAL3 TEMPAVG PRESSURE GPRESSURE VOLUME PRESSAVG GPRESSAVG
ENERGY: 45000 1600.1520 2390.3816 3225.9624 0.0000 -175904.3382 19978.2085 64.7587 0.0000 30805.7019 -117839.1731 299.5147 -148644.8750 -117796.9666 299.5147 -0.9214 65.5656 496639.8317 -0.9214 65.5656
ENERGY: 46000 1556.5212 2439.4904 3204.7875 0.0000 -176007.7982 20079.4317 72.4192 0.0000 30751.6165 -117903.5316 298.9889 -148655.1482 -117858.9597 298.7230 133.2864 56.6867 496457.6475 -0.9596 -1.1883
ENERGY: 47000 1642.7480 2355.6994 3187.0505 0.0000 -176452.7044 20165.0781 80.2826 0.0000 30834.8627 -118186.9832 299.7983 -149021.8459 -118127.4567 299.0940 -110.2865 -11.4024 497810.6737 2.0321 1.7065
ENERGY: 48000 1578.6517 2423.2589 3192.7099 0.0000 -176453.6411 20274.3183 83.3879 0.0000 30746.3660 -118154.9485 298.9378 -148901.3144 -118103.5303 299.1371 -17.1875 49.9368 497153.1933 -2.6231 -2.5403
ENERGY: 49000 1624.7307 2357.8177 3189.3902 0.0000 -175969.0119 20008.3963 96.8470 0.0000 30842.6214 -117849.2085 299.8737 -148691.8299 -117815.8056 299.2436 40.2656 -39.6826 496833.3762 -1.5453 -1.6286
ENERGY: 50000 1637.1115 2385.8904 3207.5124 0.0000 -176015.0458 20080.4936 95.1922 0.0000 30810.8361 -117798.0096 299.5647 -148608.8456 -117757.4531 299.3218 125.4736 99.1065 496488.0310 -1.5460 -1.2031
TCL: Setting parameter constraintScaling to 0
TCL: Running for 5000 steps
ETITLE: TS BOND ANGLE DIHED IMPRP ELECT VDW BOUNDARY MISC KINETIC TOTAL TEMP POTENTIAL TOTAL3 TEMPAVG PRESSURE GPRESSURE VOLUME PRESSAVG GPRESSAVG
ENERGY: 50000 1637.1115 2385.8904 3207.5124 0.0000 -176015.0458 20080.4936 0.0000 0.0000 30808.7925 -117895.2454 299.5448 -148704.0379 -117853.0345 299.5448 99.2347 75.2287 496488.0310 99.2347 75.2287
ENERGY: 51000 1653.2691 2390.1531 3194.8903 0.0000 -175702.4140 19973.9684 0.0000 0.0000 30795.4355 -117694.6976 299.4149 -148490.1331 -117647.2882 300.7811 54.0112 25.3439 496382.8937 -2.5610 -3.2967
ENERGY: 52000 1634.4000 2404.2747 3203.7343 0.0000 -175932.4978 19991.1788 0.0000 0.0000 30668.7347 -118030.1753 298.1831 -148698.9100 -117988.2654 299.3664 -73.0758 -29.1620 495439.3157 -7.9681 -8.1193
ENERGY: 53000 1646.2822 2409.9035 3160.9364 0.0000 -176057.9846 20115.8431 0.0000 0.0000 30636.5499 -118088.4694 297.8701 -148725.0193 -118043.6503 299.5316 -91.0208 -29.0271 496732.4618 3.4972 3.7153
ENERGY: 54000 1650.8500 2317.3928 3189.5767 0.0000 -176075.0900 20147.2042 0.0000 0.0000 30677.5268 -118092.5395 298.2685 -148770.0663 -118047.7724 299.4763 -26.8585 54.2762 496315.8915 -6.9564 -6.9437
ENERGY: 55000 1678.1093 2432.6939 3222.8113 0.0000 -176049.1006 20175.1350 0.0000 0.0000 30709.6816 -117830.6696 298.5812 -148540.3512 -117784.9696 298.8314 -21.4089 41.9248 496311.2591 -3.3572 -3.4640
