Info: SIMULATION PARAMETERS:
Info: TIMESTEP               2
Info: NUMBER OF STEPS        0
Info: STEPS PER CYCLE        10
Info: PERIODIC CELL BASIS 1  72.449 0 0
Info: PERIODIC CELL BASIS 2  0 93.247 0
Info: PERIODIC CELL BASIS 3  0 0 79.185
Info: PERIODIC CELL CENTER   -0.248 -0.156 -0.047
Info: WRAPPING WATERS AROUND PERIODIC BOUNDARIES ON OUTPUT.
Info: WRAPPING ALL CLUSTERS AROUND PERIODIC BOUNDARIES ON OUTPUT.
Info: FIRST LDB TIMESTEP     50
Info: LAST LDB TIMESTEP     -1
Info: HOM BACKGROUND SCALING 1
Info: PME BACKGROUND SCALING 1
Info: MIN ATOMS PER PATCH    40
Info: INITIAL TEMPERATURE    0
Info: CENTER OF MASS MOVING INITIALLY? NO
Info: DIELECTRIC             1
Info: EXCLUDE                SCALED ONE-FOUR
Info: 1-4 ELECTROSTATICS SCALED BY 0.833333
Info: MODIFIED 1-4 VDW PARAMETERS WILL BE USED
Info: NO DCD TRAJECTORY OUTPUT
Info: NO EXTENDED SYSTEM TRAJECTORY OUTPUT
Info: NO VELOCITY DCD OUTPUT
Info: NO FORCE DCD OUTPUT
Info: OUTPUT FILENAME        ../replicas/rep37/equilibration/eq0
Info: NO RESTART FILE
Info: SWITCHING ACTIVE
Info: SWITCHING ON           10
Info: SWITCHING OFF          12
Info: PAIRLIST DISTANCE      13.5
Info: PAIRLIST SHRINK RATE   0.01
Info: PAIRLIST GROW RATE     0.01
Info: PAIRLIST TRIGGER       0.3
Info: PAIRLISTS PER CYCLE    2
Info: PAIRLISTS ENABLED
Info: MARGIN                 0
Info: HYDROGEN GROUP CUTOFF  2.5
Info: PATCH DIMENSION        16
Info: ENERGY OUTPUT STEPS    500
Info: CROSSTERM ENERGY INCLUDED IN DIHEDRAL
Info: TIMING OUTPUT STEPS    5000
Info: PRESSURE OUTPUT STEPS  500
Info: HARMONIC CONSTRAINTS ACTIVE
Info: HARMONIC CONS EXP      2
Info: HARMONIC CONS SCALING  10
Info: CONJUGATE GRADIENT MINIMIZATION ACTIVE
Info: LINE MINIMIZATION GOAL = 0.001
Info: BABY STEP SIZE = 0.01
Info: TINY STEP SIZE = 1e-06
Info: PARTICLE MESH EWALD (PME) ACTIVE
Info: PME TOLERANCE               1e-06
Info: PME EWALD COEFFICIENT       0.257952
Info: PME INTERPOLATION ORDER     4
Info: PME GRID DIMENSIONS         80 96 80
Info: PME MAXIMUM GRID SPACING    1
Info: FULL ELECTROSTATIC EVALUATION FREQUENCY      2
Info: USING VERLET I (r-RESPA) MTS SCHEME.
Info: C1 SPLITTING OF LONG RANGE ELECTROSTATICS
Info: PLACING ATOMS IN PATCHES BY HYDROGEN GROUPS
Info: RIGID BONDS TO HYDROGEN : ALL
Info:         ERROR TOLERANCE : 1e-05
Info:          MAX ITERATIONS : 100
Info: RIGID WATER USING SETTLE ALGORITHM
Info: RANDOM NUMBER SEED     1503693043
Info: USE HYDROGEN BONDS?    NO
Info: Using AMBER format force field!
Info: AMBER PARM FILE        ../build/complex.top
Info: COORDINATE PDB         ../build/complex.pdb
Info: Exclusions in PARM file will be ignored!
Info: SCNB (VDW SCALING)     2
Info: USING ARITHMETIC MEAN TO COMBINE L-J SIGMA PARAMETERS
Info: SUMMARY OF PARAMETERS:
Info: 71 BONDS
Info: 145 ANGLES
Info:   145 HARMONIC
Info:   0 COSINE-BASED
Info: 76 DIHEDRAL
Info: 0 IMPROPER
Info: 0 CROSSTERM
Info: 0 VDW
Info: 190 VDW_PAIRS
Info: 0 NBTHOLE_PAIRS
Info: STRUCTURE SUMMARY:
Info: 49394 ATOMS
Info: 49448 BONDS
Info: 8698 ANGLES
Info: 18780 DIHEDRALS
Info: 0 IMPROPERS
Info: 0 CROSSTERMS
Info: 0 EXCLUSIONS
Info: 2336 CONSTRAINTS
Info: 47058 RIGID BONDS
Info: 101124 DEGREES OF FREEDOM
Info: 17225 HYDROGEN GROUPS
Info: 4 ATOMS IN LARGEST HYDROGEN GROUP
Info: 17225 MIGRATION GROUPS
Info: 4 ATOMS IN LARGEST MIGRATION GROUP
Info: TOTAL MASS = 301478 amu
Info: TOTAL CHARGE = 1.00115e-05 e
Info: MASS DENSITY = 0.935846 g/cm^3
Info: ATOM DENSITY = 0.0923345 atoms/A^3
Info: ADDED 70656 IMPLICIT EXCLUSIONS
Info: NONBONDED TABLE R-SQUARED SPACING: 0.0625
Info: NONBONDED TABLE SIZE: 769 POINTS
Info: REMOVING COM VELOCITY 0 0 0
TCL: Minimizing for 100 steps
ETITLE: TS BOND ANGLE DIHED IMPRP ELECT VDW BOUNDARY MISC KINETIC TOTAL TEMP POTENTIAL TOTAL3 TEMPAVG PRESSURE GPRESSURE VOLUME PRESSAVG GPRESSAVG
ENERGY: 0 155.4176 1012.2698 2855.7272 0.0000 -154496.7912 207729.2052 0.0468 0.0000 0.0000 57255.8754 0.0000 57255.8754 57255.8754 0.0000 116350.2532 86546.1670 534946.2959 116350.2532 86546.1670
ENERGY: 20 304.7541 935.7910 2893.4663 0.0000 -158672.9397 17936.6598 143.9454 0.0000 0.0000 -136458.3231 0.0000 -136458.3231 -136458.3231 0.0000 16523.9391 -239.4553 534946.2959 16523.9391 -239.4553
ENERGY: 40 198.7443 799.5727 2896.9273 0.0000 -162811.4542 16417.9534 221.3030 0.0000 0.0000 -142276.9536 0.0000 -142276.9536 -142276.9536 0.0000 15011.2700 -2135.4702 534946.2959 15011.2700 -2135.4702
ENERGY: 60 130.5282 715.3440 2898.2166 0.0000 -167496.1584 15446.7537 315.2796 0.0000 0.0000 -147990.0363 0.0000 -147990.0363 -147990.0363 0.0000 13793.8834 -3799.3991 534946.2959 13793.8834 -3799.3991
ENERGY: 80 431.2748 765.6310 2904.3786 0.0000 -169937.5352 15121.1517 372.0123 0.0000 0.0000 -150343.0868 0.0000 -150343.0868 -150343.0868 0.0000 13270.3292 -4577.2475 534946.2959 13270.3292 -4577.2475
ENERGY: 100 129.7132 708.0646 2904.2780 0.0000 -171050.0674 15018.6536 384.2000 0.0000 0.0000 -151905.1580 0.0000 -151905.1580 -151905.1580 0.0000 13092.9127 -4843.6316 534946.2959 13092.9127 -4843.6316
TCL: Setting parameter constraintScaling to 5.0
TCL: Minimizing for 100 steps
ETITLE: TS BOND ANGLE DIHED IMPRP ELECT VDW BOUNDARY MISC KINETIC TOTAL TEMP POTENTIAL TOTAL3 TEMPAVG PRESSURE GPRESSURE VOLUME PRESSAVG GPRESSAVG
ENERGY: 100 129.7132 708.0646 2904.2780 0.0000 -171050.0675 15018.6536 192.1000 0.0000 0.0000 -152097.2580 0.0000 -152097.2580 -152097.2580 0.0000 13703.5079 -22944.4548 534946.2959 13703.5079 -22944.4548
ENERGY: 120 118.6818 680.2876 2909.9066 0.0000 -172396.3123 14830.1207 259.9548 0.0000 0.0000 -153597.3608 0.0000 -153597.3608 -153597.3608 0.0000 13320.9477 -4756.3067 534946.2959 13320.9477 -4756.3067
ENERGY: 140 109.1486 671.1473 2912.0863 0.0000 -174830.2280 14716.1442 337.7297 0.0000 0.0000 -156083.9720 0.0000 -156083.9720 -156083.9720 0.0000 12908.9636 -5423.1384 534946.2959 12908.9636 -5423.1384
ENERGY: 160 125.8513 667.1496 2914.1926 0.0000 -175967.0820 14735.1355 362.9196 0.0000 0.0000 -157161.8333 0.0000 -157161.8333 -157161.8333 0.0000 12806.8925 -5643.2598 534946.2959 12806.8925 -5643.2598
ENERGY: 180 303.4983 659.6833 2917.2966 0.0000 -177408.7300 14815.0166 395.3829 0.0000 0.0000 -158317.8523 0.0000 -158317.8523 -158317.8523 0.0000 12699.3143 -5900.3304 534946.2959 12699.3143 -5900.3304
ENERGY: 200 109.2078 628.4741 2923.3575 0.0000 -179543.7113 15071.1329 441.8784 0.0000 0.0000 -160369.6604 0.0000 -160369.6604 -160369.6604 0.0000 12659.9910 -6150.6199 534946.2959 12659.9910 -6150.6199
TCL: Setting parameter constraintScaling to 2.5
TCL: Minimizing for 100 steps
ETITLE: TS BOND ANGLE DIHED IMPRP ELECT VDW BOUNDARY MISC KINETIC TOTAL TEMP POTENTIAL TOTAL3 TEMPAVG PRESSURE GPRESSURE VOLUME PRESSAVG GPRESSAVG
ENERGY: 200 109.2078 628.4741 2923.3575 0.0000 -179543.7113 15071.1329 220.9392 0.0000 0.0000 -160590.5996 0.0000 -160590.5996 -160590.5996 0.0000 13208.4115 -25269.7497 534946.2959 13208.4115 -25269.7497
ENERGY: 220 169.2508 639.8888 2924.9600 0.0000 -180454.1225 15113.9723 291.3382 0.0000 0.0000 -161314.7124 0.0000 -161314.7124 -161314.7124 0.0000 13002.2943 -5913.5585 534946.2959 13002.2943 -5913.5585
ENERGY: 240 251.6991 643.2209 2921.4147 0.0000 -181893.2917 15358.7111 339.5436 0.0000 0.0000 -162378.7024 0.0000 -162378.7024 -162378.7024 0.0000 12963.9390 -6106.3589 534946.2959 12963.9390 -6106.3589
ENERGY: 260 174.8432 639.0865 2923.9323 0.0000 -184165.3279 15902.9706 436.7590 0.0000 0.0000 -164087.7362 0.0000 -164087.7362 -164087.7362 0.0000 13008.0915 -6304.4851 534946.2959 13008.0915 -6304.4851
ENERGY: 280 146.2598 648.6726 2918.2264 0.0000 -184695.5316 16063.7911 426.9114 0.0000 0.0000 -164491.6703 0.0000 -164491.6703 -164491.6703 0.0000 13127.0557 -6258.7987 534946.2959 13127.0557 -6258.7987
ENERGY: 300 243.8994 693.1822 2927.5020 0.0000 -186406.4515 16620.0446 426.2127 0.0000 0.0000 -165495.6107 0.0000 -165495.6107 -165495.6107 0.0000 13376.7732 -6204.2059 534946.2959 13376.7732 -6204.2059
TCL: Setting parameter constraintScaling to 1.25
TCL: Minimizing for 100 steps
ETITLE: TS BOND ANGLE DIHED IMPRP ELECT VDW BOUNDARY MISC KINETIC TOTAL TEMP POTENTIAL TOTAL3 TEMPAVG PRESSURE GPRESSURE VOLUME PRESSAVG GPRESSAVG
ENERGY: 300 243.8994 693.1822 2927.5020 0.0000 -186406.4515 16620.0446 213.1064 0.0000 0.0000 -165708.7170 0.0000 -165708.7170 -165708.7170 0.0000 13787.4946 -26286.0093 534946.2959 13787.4946 -26286.0093
ENERGY: 320 183.7027 668.7614 2910.0513 0.0000 -186964.5303 16741.1086 255.2514 0.0000 0.0000 -166205.6549 0.0000 -166205.6549 -166205.6549 0.0000 13766.8296 -5871.7360 534946.2959 13766.8296 -5871.7360
ENERGY: 340 338.6565 711.0159 2917.2851 0.0000 -188191.9945 17072.8625 325.6135 0.0000 0.0000 -166826.5610 0.0000 -166826.5610 -166826.5610 0.0000 13741.0743 -6020.3608 534946.2959 13741.0743 -6020.3608
ENERGY: 360 289.4162 710.2977 2914.1298 0.0000 -189463.3380 17509.4355 376.2201 0.0000 0.0000 -167663.8386 0.0000 -167663.8386 -167663.8386 0.0000 13887.6039 -6007.6065 534946.2959 13887.6039 -6007.6065
ENERGY: 380 186.1190 656.4644 2899.7537 0.0000 -189999.3668 17720.3952 372.1472 0.0000 0.0000 -168164.4873 0.0000 -168164.4873 -168164.4873 0.0000 14001.9324 -5984.6722 534946.2959 14001.9324 -5984.6722
ENERGY: 400 152.1717 639.5168 2899.8835 0.0000 -191698.6127 18415.4888 367.8869 0.0000 0.0000 -169223.6649 0.0000 -169223.6649 -169223.6649 0.0000 14397.2010 -5776.9575 534946.2959 14397.2010 -5776.9575
TCL: Setting parameter constraintScaling to 0.625
TCL: Minimizing for 100 steps
ETITLE: TS BOND ANGLE DIHED IMPRP ELECT VDW BOUNDARY MISC KINETIC TOTAL TEMP POTENTIAL TOTAL3 TEMPAVG PRESSURE GPRESSURE VOLUME PRESSAVG GPRESSAVG
ENERGY: 400 152.1717 639.5168 2899.8835 0.0000 -191698.6127 18415.4888 183.9435 0.0000 0.0000 -169407.6084 0.0000 -169407.6084 -169407.6084 0.0000 14688.4493 -26639.8463 534946.2959 14688.4493 -26639.8463
ENERGY: 420 161.1020 634.6503 2891.8302 0.0000 -192179.4942 18524.7798 217.0369 0.0000 0.0000 -169750.0950 0.0000 -169750.0950 -169750.0950 0.0000 14642.7938 -5580.7974 534946.2959 14642.7938 -5580.7974
ENERGY: 440 153.9997 652.1651 2887.2398 0.0000 -192913.7450 18756.9081 263.3009 0.0000 0.0000 -170200.1314 0.0000 -170200.1314 -170200.1314 0.0000 14653.4732 -5649.0591 534946.2959 14653.4732 -5649.0591
ENERGY: 460 216.9601 670.5445 2885.0928 0.0000 -193679.1112 19079.1345 263.6180 0.0000 0.0000 -170563.7613 0.0000 -170563.7613 -170563.7613 0.0000 14833.0633 -5547.9620 534946.2959 14833.0633 -5547.9620
ENERGY: 480 224.0952 641.5769 2885.0792 0.0000 -194710.5731 19465.1663 290.7724 0.0000 0.0000 -171203.8831 0.0000 -171203.8831 -171203.8831 0.0000 14971.2091 -5525.6714 534946.2959 14971.2091 -5525.6714
ENERGY: 500 148.9194 658.3184 2872.6701 0.0000 -196151.6772 20060.8849 347.2261 0.0000 0.0000 -172063.6583 0.0000 -172063.6583 -172063.6583 0.0000 15230.7641 -5442.3308 534946.2959 15230.7641 -5442.3308
TCL: Setting parameter constraintScaling to 0.3125
TCL: Minimizing for 100 steps
ETITLE: TS BOND ANGLE DIHED IMPRP ELECT VDW BOUNDARY MISC KINETIC TOTAL TEMP POTENTIAL TOTAL3 TEMPAVG PRESSURE GPRESSURE VOLUME PRESSAVG GPRESSAVG
ENERGY: 500 148.9194 658.3184 2872.6701 0.0000 -196151.6772 20060.8849 173.6131 0.0000 0.0000 -172237.2714 0.0000 -172237.2714 -172237.2714 0.0000 15436.8637 -26929.6191 534946.2959 15436.8637 -26929.6191
ENERGY: 520 155.2223 646.4197 2868.4323 0.0000 -196610.2767 20209.4117 185.0950 0.0000 0.0000 -172545.6957 0.0000 -172545.6957 -172545.6957 0.0000 15487.9120 -5234.3499 534946.2959 15487.9120 -5234.3499
ENERGY: 540 149.9874 646.3712 2866.6974 0.0000 -197576.0477 20539.5805 211.2850 0.0000 0.0000 -173162.1262 0.0000 -173162.1262 -173162.1262 0.0000 15619.2507 -5219.5439 534946.2959 15619.2507 -5219.5439
ENERGY: 560 283.6924 678.8576 2859.4626 0.0000 -197998.6243 20696.3585 220.9368 0.0000 0.0000 -173259.3165 0.0000 -173259.3165 -173259.3165 0.0000 15696.8029 -5187.5213 534946.2959 15696.8029 -5187.5213
ENERGY: 580 182.4999 666.9064 2860.7194 0.0000 -198795.7691 21012.4901 234.5394 0.0000 0.0000 -173838.6140 0.0000 -173838.6140 -173838.6140 0.0000 15761.0649 -5199.9665 534946.2959 15761.0649 -5199.9665
ENERGY: 600 179.1907 673.2887 2858.0134 0.0000 -200263.8339 21652.8228 256.2833 0.0000 0.0000 -174644.2349 0.0000 -174644.2349 -174644.2349 0.0000 16140.0955 -5009.3665 534946.2959 16140.0955 -5009.3665
TCL: Setting parameter constraintScaling to 0.15625
TCL: Minimizing for 100 steps
ETITLE: TS BOND ANGLE DIHED IMPRP ELECT VDW BOUNDARY MISC KINETIC TOTAL TEMP POTENTIAL TOTAL3 TEMPAVG PRESSURE GPRESSURE VOLUME PRESSAVG GPRESSAVG
ENERGY: 600 179.1907 673.2887 2858.0134 0.0000 -200263.8339 21652.8228 128.1417 0.0000 0.0000 -174772.3765 0.0000 -174772.3765 -174772.3765 0.0000 16270.8552 -27087.5948 534946.2959 16270.8552 -27087.5948
ENERGY: 620 185.0749 673.2932 2845.2065 0.0000 -200552.9742 21713.0304 137.2935 0.0000 0.0000 -174999.0757 0.0000 -174999.0757 -174999.0757 0.0000 16272.1872 -4909.6918 534946.2959 16272.1872 -4909.6918
ENERGY: 640 171.4968 652.1896 2842.2344 0.0000 -200777.0797 21779.1762 142.3441 0.0000 0.0000 -175189.6385 0.0000 -175189.6385 -175189.6385 0.0000 16275.6193 -4926.8945 534946.2959 16275.6193 -4926.8945
ENERGY: 660 169.4355 654.1468 2844.1410 0.0000 -200919.4851 21804.0507 144.0350 0.0000 0.0000 -175303.6761 0.0000 -175303.6761 -175303.6761 0.0000 16311.1322 -4918.8445 534946.2959 16311.1322 -4918.8445
ENERGY: 680 306.6822 745.3347 2846.5495 0.0000 -201629.5024 22084.0671 156.5666 0.0000 0.0000 -175490.3023 0.0000 -175490.3023 -175490.3023 0.0000 16392.3515 -4909.1311 534946.2959 16392.3515 -4909.1311
ENERGY: 700 177.4601 675.7994 2838.1059 0.0000 -202434.7979 22430.0873 171.8063 0.0000 0.0000 -176141.5389 0.0000 -176141.5389 -176141.5389 0.0000 16581.1860 -4813.7998 534946.2959 16581.1860 -4813.7998
TCL: Setting parameter constraintScaling to 0.078125
TCL: Minimizing for 100 steps
ETITLE: TS BOND ANGLE DIHED IMPRP ELECT VDW BOUNDARY MISC KINETIC TOTAL TEMP POTENTIAL TOTAL3 TEMPAVG PRESSURE GPRESSURE VOLUME PRESSAVG GPRESSAVG
ENERGY: 700 177.4601 675.7994 2838.1059 0.0000 -202434.7979 22430.0873 85.9032 0.0000 0.0000 -176227.4421 0.0000 -176227.4421 -176227.4421 0.0000 16658.1162 -27213.1005 534946.2959 16658.1162 -27213.1005
ENERGY: 720 163.2754 648.1765 2831.6931 0.0000 -202587.6969 22450.7783 87.1263 0.0000 0.0000 -176406.6473 0.0000 -176406.6473 -176406.6473 0.0000 16678.8540 -4739.0034 534946.2959 16678.8540 -4739.0034
ENERGY: 740 278.2716 705.5565 2839.7893 0.0000 -203090.8907 22679.6588 93.6078 0.0000 0.0000 -176494.0066 0.0000 -176494.0066 -176494.0066 0.0000 16743.7676 -4731.6819 534946.2959 16743.7676 -4731.6819
ENERGY: 760 178.3252 653.7212 2829.1947 0.0000 -203101.0890 22638.6337 92.5199 0.0000 0.0000 -176708.6943 0.0000 -176708.6943 -176708.6943 0.0000 16761.8716 -4715.8211 534946.2959 16761.8716 -4715.8211
ENERGY: 780 164.6639 653.0742 2828.3538 0.0000 -203284.0327 22714.2955 94.3769 0.0000 0.0000 -176829.2684 0.0000 -176829.2684 -176829.2684 0.0000 16796.1932 -4705.7024 534946.2959 16796.1932 -4705.7024
ENERGY: 800 201.5724 680.7579 2830.7294 0.0000 -203789.4271 22945.7839 99.3658 0.0000 0.0000 -177031.2177 0.0000 -177031.2177 -177031.2177 0.0000 16894.8522 -4657.3010 534946.2959 16894.8522 -4657.3010
TCL: Setting parameter constraintScaling to 0.0390625
TCL: Minimizing for 100 steps
ETITLE: TS BOND ANGLE DIHED IMPRP ELECT VDW BOUNDARY MISC KINETIC TOTAL TEMP POTENTIAL TOTAL3 TEMPAVG PRESSURE GPRESSURE VOLUME PRESSAVG GPRESSAVG
ENERGY: 800 201.5724 680.7579 2830.7294 0.0000 -203789.4271 22945.7839 49.6829 0.0000 0.0000 -177080.9006 0.0000 -177080.9006 -177080.9006 0.0000 16937.1603 -27257.2130 534946.2959 16937.1603 -27257.2130
ENERGY: 820 163.2728 647.9278 2820.8493 0.0000 -203876.7641 22968.6192 49.9927 0.0000 0.0000 -177226.1023 0.0000 -177226.1023 -177226.1023 0.0000 16966.4025 -4602.1945 534946.2959 16966.4025 -4602.1945
ENERGY: 840 175.1083 657.7799 2824.1941 0.0000 -204306.7186 23150.9979 53.2034 0.0000 0.0000 -177445.4351 0.0000 -177445.4351 -177445.4351 0.0000 17041.2624 -4578.9829 534946.2959 17041.2624 -4578.9829
ENERGY: 860 196.6941 660.5809 2819.6105 0.0000 -204391.9907 23182.0400 53.4309 0.0000 0.0000 -177479.6343 0.0000 -177479.6343 -177479.6343 0.0000 17062.6331 -4561.4539 534946.2959 17062.6331 -4561.4539
ENERGY: 880 170.0784 655.0564 2819.5012 0.0000 -204598.5242 23270.2808 54.4922 0.0000 0.0000 -177629.1153 0.0000 -177629.1153 -177629.1153 0.0000 17107.9776 -4546.3998 534946.2959 17107.9776 -4546.3998
ENERGY: 900 189.5618 672.7465 2822.5909 0.0000 -205156.7947 23560.3112 57.8493 0.0000 0.0000 -177853.7349 0.0000 -177853.7349 -177853.7349 0.0000 17246.0940 -4461.3073 534946.2959 17246.0940 -4461.3073
TCL: Setting parameter constraintScaling to 0.01953125
TCL: Minimizing for 100 steps
ETITLE: TS BOND ANGLE DIHED IMPRP ELECT VDW BOUNDARY MISC KINETIC TOTAL TEMP POTENTIAL TOTAL3 TEMPAVG PRESSURE GPRESSURE VOLUME PRESSAVG GPRESSAVG
ENERGY: 900 189.5618 672.7465 2822.5909 0.0000 -205156.7946 23560.3112 28.9247 0.0000 0.0000 -177882.6595 0.0000 -177882.6595 -177882.6595 0.0000 17269.5769 -27251.6479 534946.2959 17269.5769 -27251.6479
ENERGY: 920 201.1075 660.6337 2816.3819 0.0000 -205304.1473 23571.9732 29.4564 0.0000 0.0000 -178024.5947 0.0000 -178024.5947 -178024.5947 0.0000 17263.8357 -4465.9704 534946.2959 17263.8357 -4465.9704
ENERGY: 940 164.6877 654.2296 2812.6779 0.0000 -205478.3028 23657.0670 30.2495 0.0000 0.0000 -178159.3912 0.0000 -178159.3912 -178159.3912 0.0000 17328.7491 -4429.2439 534946.2959 17328.7491 -4429.2439
ENERGY: 960 241.1526 668.1693 2813.9345 0.0000 -205935.1082 23839.7457 31.9938 0.0000 0.0000 -178340.1124 0.0000 -178340.1124 -178340.1124 0.0000 17398.7229 -4409.4118 534946.2959 17398.7229 -4409.4118
ENERGY: 980 162.9185 651.2169 2809.4450 0.0000 -206096.2795 23912.6502 32.5396 0.0000 0.0000 -178527.5092 0.0000 -178527.5092 -178527.5092 0.0000 17449.4428 -4381.5955 534946.2959 17449.4428 -4381.5955
ENERGY: 1000 170.4191 653.2044 2807.0991 0.0000 -206293.4923 24019.0812 33.0691 0.0000 0.0000 -178610.6193 0.0000 -178610.6193 -178610.6193 0.0000 17510.3162 -4338.3832 534946.2959 17510.3162 -4338.3832
TCL: Setting parameter constraintScaling to 0
TCL: Minimizing for 5000 steps
ETITLE: TS BOND ANGLE DIHED IMPRP ELECT VDW BOUNDARY MISC KINETIC TOTAL TEMP POTENTIAL TOTAL3 TEMPAVG PRESSURE GPRESSURE VOLUME PRESSAVG GPRESSAVG
ENERGY: 1000 170.4191 653.2044 2807.0991 0.0000 -206293.4923 24019.0812 0.0000 0.0000 0.0000 -178643.6885 0.0000 -178643.6885 -178643.6885 0.0000 17535.9784 -27256.2080 534946.2959 17535.9784 -27256.2080
ENERGY: 2000 172.8837 666.4964 2805.9690 0.0000 -214971.8900 27903.3971 0.0000 0.0000 0.0000 -183423.1438 0.0000 -183423.1438 -183423.1438 0.0000 19607.3397 -3212.2179 534946.2959 19607.3397 -3212.2179
ENERGY: 3000 166.1064 663.9402 2799.6666 0.0000 -217632.3768 28970.2017 0.0000 0.0000 0.0000 -185032.4618 0.0000 -185032.4618 -185032.4618 0.0000 20175.0901 -2919.9436 534946.2959 20175.0901 -2919.9436
ENERGY: 4000 166.0960 660.4295 2794.0803 0.0000 -218872.5565 29416.3374 0.0000 0.0000 0.0000 -185835.6133 0.0000 -185835.6133 -185835.6133 0.0000 20400.8621 -2832.7827 534946.2959 20400.8621 -2832.7827
ENERGY: 5000 165.8149 661.8255 2791.1969 0.0000 -219473.9374 29658.3408 0.0000 0.0000 0.0000 -186196.7593 0.0000 -186196.7593 -186196.7593 0.0000 20518.3343 -2778.0074 534946.2959 20518.3343 -2778.0074
ENERGY: 6000 165.3521 662.3347 2791.0893 0.0000 -219926.3455 29867.1562 0.0000 0.0000 0.0000 -186440.4133 0.0000 -186440.4133 -186440.4133 0.0000 20626.3248 -2717.9237 534946.2959 20626.3248 -2717.9237
