Info: SIMULATION PARAMETERS:
Info: TIMESTEP               2
Info: NUMBER OF STEPS        0
Info: STEPS PER CYCLE        10
Info: PERIODIC CELL BASIS 1  72.449 0 0
Info: PERIODIC CELL BASIS 2  0 93.247 0
Info: PERIODIC CELL BASIS 3  0 0 79.185
Info: PERIODIC CELL CENTER   -0.248 -0.156 -0.047
Info: WRAPPING WATERS AROUND PERIODIC BOUNDARIES ON OUTPUT.
Info: WRAPPING ALL CLUSTERS AROUND PERIODIC BOUNDARIES ON OUTPUT.
Info: FIRST LDB TIMESTEP     50
Info: LAST LDB TIMESTEP     -1
Info: HOM BACKGROUND SCALING 1
Info: PME BACKGROUND SCALING 1
Info: MIN ATOMS PER PATCH    40
Info: INITIAL TEMPERATURE    0
Info: CENTER OF MASS MOVING INITIALLY? NO
Info: DIELECTRIC             1
Info: EXCLUDE                SCALED ONE-FOUR
Info: 1-4 ELECTROSTATICS SCALED BY 0.833333
Info: MODIFIED 1-4 VDW PARAMETERS WILL BE USED
Info: NO DCD TRAJECTORY OUTPUT
Info: NO EXTENDED SYSTEM TRAJECTORY OUTPUT
Info: NO VELOCITY DCD OUTPUT
Info: NO FORCE DCD OUTPUT
Info: OUTPUT FILENAME        ../replicas/rep23/equilibration/eq0
Info: NO RESTART FILE
Info: SWITCHING ACTIVE
Info: SWITCHING ON           10
Info: SWITCHING OFF          12
Info: PAIRLIST DISTANCE      13.5
Info: PAIRLIST SHRINK RATE   0.01
Info: PAIRLIST GROW RATE     0.01
Info: PAIRLIST TRIGGER       0.3
Info: PAIRLISTS PER CYCLE    2
Info: PAIRLISTS ENABLED
Info: MARGIN                 0
Info: HYDROGEN GROUP CUTOFF  2.5
Info: PATCH DIMENSION        16
Info: ENERGY OUTPUT STEPS    500
Info: CROSSTERM ENERGY INCLUDED IN DIHEDRAL
Info: TIMING OUTPUT STEPS    5000
Info: PRESSURE OUTPUT STEPS  500
Info: HARMONIC CONSTRAINTS ACTIVE
Info: HARMONIC CONS EXP      2
Info: HARMONIC CONS SCALING  10
Info: CONJUGATE GRADIENT MINIMIZATION ACTIVE
Info: LINE MINIMIZATION GOAL = 0.001
Info: BABY STEP SIZE = 0.01
Info: TINY STEP SIZE = 1e-06
Info: PARTICLE MESH EWALD (PME) ACTIVE
Info: PME TOLERANCE               1e-06
Info: PME EWALD COEFFICIENT       0.257952
Info: PME INTERPOLATION ORDER     4
Info: PME GRID DIMENSIONS         80 96 80
Info: PME MAXIMUM GRID SPACING    1
Info: FULL ELECTROSTATIC EVALUATION FREQUENCY      2
Info: USING VERLET I (r-RESPA) MTS SCHEME.
Info: C1 SPLITTING OF LONG RANGE ELECTROSTATICS
Info: PLACING ATOMS IN PATCHES BY HYDROGEN GROUPS
Info: RIGID BONDS TO HYDROGEN : ALL
Info:         ERROR TOLERANCE : 1e-05
Info:          MAX ITERATIONS : 100
Info: RIGID WATER USING SETTLE ALGORITHM
Info: RANDOM NUMBER SEED     1503693300
Info: USE HYDROGEN BONDS?    NO
Info: Using AMBER format force field!
Info: AMBER PARM FILE        ../build/complex.top
Info: COORDINATE PDB         ../build/complex.pdb
Info: Exclusions in PARM file will be ignored!
Info: SCNB (VDW SCALING)     2
Info: USING ARITHMETIC MEAN TO COMBINE L-J SIGMA PARAMETERS
Info: SUMMARY OF PARAMETERS:
Info: 71 BONDS
Info: 145 ANGLES
Info: 76 DIHEDRAL
Info: 0 IMPROPER
Info: 0 CROSSTERM
Info: 0 VDW
Info: 190 VDW_PAIRS
Info: 0 NBTHOLE_PAIRS
Info: STRUCTURE SUMMARY:
Info: 49394 ATOMS
Info: 49448 BONDS
Info: 8698 ANGLES
Info: 18780 DIHEDRALS
Info: 0 IMPROPERS
Info: 0 CROSSTERMS
Info: 0 EXCLUSIONS
Info: 2336 CONSTRAINTS
Info: 47058 RIGID BONDS
Info: 101124 DEGREES OF FREEDOM
Info: 17225 HYDROGEN GROUPS
Info: 4 ATOMS IN LARGEST HYDROGEN GROUP
Info: 17225 MIGRATION GROUPS
Info: 4 ATOMS IN LARGEST MIGRATION GROUP
Info: TOTAL MASS = 301478 amu
Info: TOTAL CHARGE = 1.00115e-05 e
Info: MASS DENSITY = 0.935846 g/cm^3
Info: ATOM DENSITY = 0.0923345 atoms/A^3
Info: ADDED 70656 IMPLICIT EXCLUSIONS
Info: NONBONDED TABLE R-SQUARED SPACING: 0.0625
Info: NONBONDED TABLE SIZE: 769 POINTS
Info: REMOVING COM VELOCITY 0 0 0
TCL: Minimizing for 100 steps
ETITLE: TS BOND ANGLE DIHED IMPRP ELECT VDW BOUNDARY MISC KINETIC TOTAL TEMP POTENTIAL TOTAL3 TEMPAVG PRESSURE GPRESSURE VOLUME PRESSAVG GPRESSAVG
ENERGY: 0 155.4176 1012.2698 2855.7272 0.0000 -154496.7911 207729.2052 0.0468 0.0000 0.0000 57255.8755 0.0000 57255.8755 57255.8755 0.0000 116350.2532 86546.1670 534946.2959 116350.2532 86546.1670
ENERGY: 20 304.7564 935.7913 2893.4663 0.0000 -158672.9416 17936.6589 143.9455 0.0000 0.0000 -136458.3232 0.0000 -136458.3232 -136458.3232 0.0000 16523.9382 -239.4564 534946.2959 16523.9382 -239.4564
ENERGY: 40 198.7490 799.5734 2896.9273 0.0000 -162811.4531 16417.9538 221.3031 0.0000 0.0000 -142276.9465 0.0000 -142276.9465 -142276.9465 0.0000 15011.2703 -2135.4699 534946.2959 15011.2703 -2135.4699
ENERGY: 60 130.5277 715.3439 2898.2166 0.0000 -167496.1623 15446.7531 315.2798 0.0000 0.0000 -147990.0412 0.0000 -147990.0412 -147990.0412 0.0000 13793.8826 -3799.4002 534946.2959 13793.8826 -3799.4002
ENERGY: 80 431.2699 765.6300 2904.3790 0.0000 -169937.5433 15121.1508 372.0126 0.0000 0.0000 -150343.1011 0.0000 -150343.1011 -150343.1011 0.0000 13270.3273 -4577.2492 534946.2959 13270.3273 -4577.2492
ENERGY: 100 129.7107 708.0636 2904.2783 0.0000 -171050.0666 15018.6539 384.2003 0.0000 0.0000 -151905.1598 0.0000 -151905.1598 -151905.1598 0.0000 13092.9128 -4843.6305 534946.2959 13092.9128 -4843.6305
TCL: Setting parameter constraintScaling to 5.0
TCL: Minimizing for 100 steps
ETITLE: TS BOND ANGLE DIHED IMPRP ELECT VDW BOUNDARY MISC KINETIC TOTAL TEMP POTENTIAL TOTAL3 TEMPAVG PRESSURE GPRESSURE VOLUME PRESSAVG GPRESSAVG
ENERGY: 100 129.7107 708.0636 2904.2783 0.0000 -171050.0666 15018.6539 192.1001 0.0000 0.0000 -152097.2600 0.0000 -152097.2600 -152097.2600 0.0000 13703.5081 -22944.4545 534946.2959 13703.5081 -22944.4545
ENERGY: 120 118.6810 680.2872 2909.9067 0.0000 -172396.3057 14830.1209 259.9547 0.0000 0.0000 -153597.3551 0.0000 -153597.3551 -153597.3551 0.0000 13320.9489 -4756.3050 534946.2959 13320.9489 -4756.3050
ENERGY: 140 109.1465 671.1466 2912.0863 0.0000 -174830.2241 14716.1441 337.7298 0.0000 0.0000 -156083.9707 0.0000 -156083.9707 -156083.9707 0.0000 12908.9651 -5423.1359 534946.2959 12908.9651 -5423.1359
ENERGY: 160 302.9176 691.3193 2915.1723 0.0000 -176082.6955 14739.2751 369.8448 0.0000 0.0000 -157064.1662 0.0000 -157064.1662 -157064.1662 0.0000 12780.5450 -5682.1117 534946.2959 12780.5450 -5682.1117
ENERGY: 180 182.1031 640.8152 2917.0634 0.0000 -177290.0020 14805.1256 391.9071 0.0000 0.0000 -158352.9876 0.0000 -158352.9876 -158352.9876 0.0000 12715.3857 -5871.3407 534946.2959 12715.3857 -5871.3407
ENERGY: 200 152.9056 659.3959 2924.2770 0.0000 -179513.3842 15069.0055 444.5890 0.0000 0.0000 -160263.2112 0.0000 -160263.2112 -160263.2112 0.0000 12655.5346 -6161.1061 534946.2959 12655.5346 -6161.1061
TCL: Setting parameter constraintScaling to 2.5
TCL: Minimizing for 100 steps
ETITLE: TS BOND ANGLE DIHED IMPRP ELECT VDW BOUNDARY MISC KINETIC TOTAL TEMP POTENTIAL TOTAL3 TEMPAVG PRESSURE GPRESSURE VOLUME PRESSAVG GPRESSAVG
ENERGY: 200 152.9056 659.3959 2924.2770 0.0000 -179513.3842 15069.0055 222.2945 0.0000 0.0000 -160485.5057 0.0000 -160485.5057 -160485.5057 0.0000 13203.3874 -25271.4993 534946.2959 13203.3874 -25271.4993
ENERGY: 220 471.0237 751.3570 2935.8611 0.0000 -180621.5225 15113.1268 323.6010 0.0000 0.0000 -161026.5529 0.0000 -161026.5529 -161026.5529 0.0000 12844.8073 -6076.2708 534946.2959 12844.8073 -6076.2708
ENERGY: 240 126.6093 651.0563 2922.2864 0.0000 -181013.4755 15205.7358 307.9612 0.0000 0.0000 -161799.8265 0.0000 -161799.8265 -161799.8265 0.0000 13026.2282 -5963.3841 534946.2959 13026.2282 -5963.3841
ENERGY: 260 141.0604 620.5053 2920.2547 0.0000 -181663.7644 15320.7876 326.3294 0.0000 0.0000 -162334.8271 0.0000 -162334.8271 -162334.8271 0.0000 13001.9906 -6046.2166 534946.2959 13001.9906 -6046.2166
ENERGY: 280 287.0487 711.8625 2935.7005 0.0000 -183134.7374 15617.1338 402.6952 0.0000 0.0000 -163180.2967 0.0000 -163180.2967 -163180.2967 0.0000 12942.0103 -6266.8298 534946.2959 12942.0103 -6266.8298
ENERGY: 300 159.1968 634.9303 2923.6821 0.0000 -184166.0268 15903.4816 419.8752 0.0000 0.0000 -164124.8608 0.0000 -164124.8608 -164124.8608 0.0000 13060.8369 -6260.7355 534946.2959 13060.8369 -6260.7355
TCL: Setting parameter constraintScaling to 1.25
TCL: Minimizing for 100 steps
ETITLE: TS BOND ANGLE DIHED IMPRP ELECT VDW BOUNDARY MISC KINETIC TOTAL TEMP POTENTIAL TOTAL3 TEMPAVG PRESSURE GPRESSURE VOLUME PRESSAVG GPRESSAVG
ENERGY: 300 159.1968 634.9303 2923.6821 0.0000 -184166.0268 15903.4816 209.9376 0.0000 0.0000 -164334.7984 0.0000 -164334.7984 -164334.7984 0.0000 13472.6716 -26066.9404 534946.2959 13472.6716 -26066.9404
ENERGY: 320 266.5080 747.8223 2925.7786 0.0000 -185195.2009 16147.2808 268.6933 0.0000 0.0000 -164839.1179 0.0000 -164839.1179 -164839.1179 0.0000 13410.2339 -6023.3061 534946.2959 13410.2339 -6023.3061
ENERGY: 340 141.1143 677.8480 2924.3329 0.0000 -186136.5691 16396.9725 296.5033 0.0000 0.0000 -165699.7981 0.0000 -165699.7981 -165699.7981 0.0000 13487.4061 -6049.2660 534946.2959 13487.4061 -6049.2660
ENERGY: 360 150.7104 673.1089 2915.2845 0.0000 -187208.3943 16735.6687 324.4235 0.0000 0.0000 -166409.1983 0.0000 -166409.1983 -166409.1983 0.0000 13615.3755 -6052.4683 534946.2959 13615.3755 -6052.4683
ENERGY: 380 159.9196 695.2814 2905.4791 0.0000 -187803.4364 16953.6382 333.8332 0.0000 0.0000 -166755.2848 0.0000 -166755.2848 -166755.2848 0.0000 13660.9783 -6049.5620 534946.2959 13660.9783 -6049.5620
ENERGY: 400 159.6960 804.4463 2911.5223 0.0000 -189804.4717 17654.7571 398.5858 0.0000 0.0000 -167875.4643 0.0000 -167875.4643 -167875.4643 0.0000 13941.3703 -6027.9658 534946.2959 13941.3703 -6027.9658
TCL: Setting parameter constraintScaling to 0.625
TCL: Minimizing for 100 steps
ETITLE: TS BOND ANGLE DIHED IMPRP ELECT VDW BOUNDARY MISC KINETIC TOTAL TEMP POTENTIAL TOTAL3 TEMPAVG PRESSURE GPRESSURE VOLUME PRESSAVG GPRESSAVG
ENERGY: 400 159.6960 804.4463 2911.5223 0.0000 -189804.4717 17654.7571 199.2929 0.0000 0.0000 -168074.7572 0.0000 -168074.7572 -168074.7572 0.0000 14239.0707 -26638.9089 534946.2959 14239.0707 -26638.9089
ENERGY: 420 191.3028 687.2349 2903.3765 0.0000 -190332.4768 17814.4854 211.0914 0.0000 0.0000 -168524.9858 0.0000 -168524.9858 -168524.9858 0.0000 14288.7287 -5755.8956 534946.2959 14288.7287 -5755.8956
ENERGY: 440 158.5386 638.7708 2896.4597 0.0000 -190509.4147 17871.9092 216.9478 0.0000 0.0000 -168726.7887 0.0000 -168726.7887 -168726.7887 0.0000 14265.2900 -5760.7001 534946.2959 14265.2900 -5760.7001
ENERGY: 460 299.2408 764.5791 2888.7755 0.0000 -192081.1859 18425.2922 274.5968 0.0000 0.0000 -169428.7014 0.0000 -169428.7014 -169428.7014 0.0000 14457.0486 -5774.1568 534946.2959 14457.0486 -5774.1568
ENERGY: 480 220.1497 678.1519 2889.4162 0.0000 -192934.2011 18754.7956 305.0336 0.0000 0.0000 -170086.6542 0.0000 -170086.6542 -170086.6542 0.0000 14542.6383 -5755.5942 534946.2959 14542.6383 -5755.5942
ENERGY: 500 149.6986 652.4077 2884.7021 0.0000 -193069.5003 18805.5169 301.8509 0.0000 0.0000 -170275.3242 0.0000 -170275.3242 -170275.3242 0.0000 14637.3950 -5688.0243 534946.2959 14637.3950 -5688.0243
TCL: Setting parameter constraintScaling to 0.3125
TCL: Minimizing for 100 steps
ETITLE: TS BOND ANGLE DIHED IMPRP ELECT VDW BOUNDARY MISC KINETIC TOTAL TEMP POTENTIAL TOTAL3 TEMPAVG PRESSURE GPRESSURE VOLUME PRESSAVG GPRESSAVG
ENERGY: 500 149.6986 652.4077 2884.7021 0.0000 -193069.5003 18805.5169 150.9254 0.0000 0.0000 -170426.2496 0.0000 -170426.2496 -170426.2496 0.0000 14830.3212 -26810.2460 534946.2959 14830.3212 -26810.2460
ENERGY: 520 163.2969 656.8869 2885.0312 0.0000 -193376.9717 18910.4521 159.6553 0.0000 0.0000 -170601.6494 0.0000 -170601.6494 -170601.6494 0.0000 14802.7650 -5541.6684 534946.2959 14802.7650 -5541.6684
ENERGY: 540 156.0864 642.4125 2875.3394 0.0000 -194156.6209 19192.2260 175.4084 0.0000 0.0000 -171115.1482 0.0000 -171115.1482 -171115.1482 0.0000 14953.3590 -5488.6185 534946.2959 14953.3590 -5488.6185
ENERGY: 560 157.1181 640.4875 2872.0706 0.0000 -194951.0237 19492.0923 190.9951 0.0000 0.0000 -171598.2602 0.0000 -171598.2602 -171598.2602 0.0000 15083.0219 -5447.6150 534946.2959 15083.0219 -5447.6150
ENERGY: 580 194.2493 671.9908 2871.8351 0.0000 -195269.1248 19613.2682 197.1722 0.0000 0.0000 -171720.6092 0.0000 -171720.6092 -171720.6092 0.0000 15116.3081 -5442.7199 534946.2959 15116.3081 -5442.7199
ENERGY: 600 162.7854 644.6273 2867.0439 0.0000 -195498.6274 19695.4664 200.7716 0.0000 0.0000 -171927.9329 0.0000 -171927.9329 -171927.9329 0.0000 15178.8706 -5419.9594 534946.2959 15178.8706 -5419.9594
TCL: Setting parameter constraintScaling to 0.15625
TCL: Minimizing for 100 steps
ETITLE: TS BOND ANGLE DIHED IMPRP ELECT VDW BOUNDARY MISC KINETIC TOTAL TEMP POTENTIAL TOTAL3 TEMPAVG PRESSURE GPRESSURE VOLUME PRESSAVG GPRESSAVG
ENERGY: 600 162.7854 644.6273 2867.0439 0.0000 -195498.6274 19695.4664 100.3858 0.0000 0.0000 -172028.3187 0.0000 -172028.3187 -172028.3187 0.0000 15294.1609 -26913.2465 534946.2959 15294.1609 -26913.2465
ENERGY: 620 156.1905 647.7787 2866.0281 0.0000 -196043.7650 19885.5851 109.5351 0.0000 0.0000 -172378.6476 0.0000 -172378.6476 -172378.6476 0.0000 15367.2910 -5292.0830 534946.2959 15367.2910 -5292.0830
ENERGY: 640 168.4890 658.1947 2860.3283 0.0000 -196478.8116 20054.4116 114.8831 0.0000 0.0000 -172622.5049 0.0000 -172622.5049 -172622.5049 0.0000 15411.5046 -5284.4902 534946.2959 15411.5046 -5284.4902
ENERGY: 660 194.7578 665.3134 2862.1463 0.0000 -197295.9093 20360.6370 127.4249 0.0000 0.0000 -173085.6297 0.0000 -173085.6297 -173085.6297 0.0000 15556.4040 -5248.2264 534946.2959 15556.4040 -5248.2264
ENERGY: 680 158.6882 664.9167 2855.6396 0.0000 -197580.9937 20473.7416 129.2347 0.0000 0.0000 -173298.7730 0.0000 -173298.7730 -173298.7730 0.0000 15622.4462 -5211.9935 534946.2959 15622.4462 -5211.9935
ENERGY: 700 181.7104 680.8281 2854.6241 0.0000 -198314.0777 20753.1173 138.8322 0.0000 0.0000 -173704.9657 0.0000 -173704.9657 -173704.9657 0.0000 15725.2560 -5181.8925 534946.2959 15725.2560 -5181.8925
TCL: Setting parameter constraintScaling to 0.078125
TCL: Minimizing for 100 steps
ETITLE: TS BOND ANGLE DIHED IMPRP ELECT VDW BOUNDARY MISC KINETIC TOTAL TEMP POTENTIAL TOTAL3 TEMPAVG PRESSURE GPRESSURE VOLUME PRESSAVG GPRESSAVG
ENERGY: 700 181.7104 680.8281 2854.6241 0.0000 -198314.0777 20753.1173 69.4161 0.0000 0.0000 -173774.3818 0.0000 -173774.3818 -173774.3818 0.0000 15795.7210 -27085.0683 534946.2959 15795.7210 -27085.0683
ENERGY: 720 159.0036 655.0002 2850.0808 0.0000 -198523.9121 20825.4020 71.5663 0.0000 0.0000 -173962.8593 0.0000 -173962.8593 -173962.8593 0.0000 15838.0201 -5100.2312 534946.2959 15838.0201 -5100.2312
ENERGY: 740 225.4032 691.9536 2847.7246 0.0000 -198992.8304 21003.0963 75.9398 0.0000 0.0000 -174148.7130 0.0000 -174148.7130 -174148.7130 0.0000 15911.5566 -5079.4062 534946.2959 15911.5566 -5079.4062
ENERGY: 760 162.6601 653.0432 2846.9507 0.0000 -199076.7715 21023.5385 76.2043 0.0000 0.0000 -174314.3747 0.0000 -174314.3747 -174314.3747 0.0000 15920.8652 -5079.4477 534946.2959 15920.8652 -5079.4477
ENERGY: 780 169.6857 679.6985 2845.8792 0.0000 -199302.3103 21106.1865 77.9356 0.0000 0.0000 -174422.9248 0.0000 -174422.9248 -174422.9248 0.0000 15979.7511 -5048.6567 534946.2959 15979.7511 -5048.6567
ENERGY: 800 188.2084 726.5464 2846.4544 0.0000 -200347.9089 21522.8583 87.7654 0.0000 0.0000 -174976.0761 0.0000 -174976.0761 -174976.0761 0.0000 16152.8727 -5002.8287 534946.2959 16152.8727 -5002.8287
TCL: Setting parameter constraintScaling to 0.0390625
TCL: Minimizing for 100 steps
ETITLE: TS BOND ANGLE DIHED IMPRP ELECT VDW BOUNDARY MISC KINETIC TOTAL TEMP POTENTIAL TOTAL3 TEMPAVG PRESSURE GPRESSURE VOLUME PRESSAVG GPRESSAVG
ENERGY: 800 188.2084 726.5464 2846.4544 0.0000 -200347.9089 21522.8583 43.8827 0.0000 0.0000 -175019.9588 0.0000 -175019.9588 -175019.9588 0.0000 16193.4740 -27173.7133 534946.2959 16193.4740 -27173.7133
ENERGY: 820 175.4990 663.8024 2837.9840 0.0000 -200553.8848 21586.3881 44.6562 0.0000 0.0000 -175245.5552 0.0000 -175245.5552 -175245.5552 0.0000 16219.3386 -4953.3610 534946.2959 16219.3386 -4953.3610
ENERGY: 840 336.0919 769.1915 2839.8249 0.0000 -200884.5126 21723.9595 46.3702 0.0000 0.0000 -175169.0746 0.0000 -175169.0746 -175169.0746 0.0000 16307.1352 -4927.0691 534946.2959 16307.1352 -4927.0691
ENERGY: 860 169.9351 664.1798 2834.2683 0.0000 -201062.5825 21780.0068 47.0801 0.0000 0.0000 -175567.1124 0.0000 -175567.1124 -175567.1124 0.0000 16332.5210 -4908.4016 534946.2959 16332.5210 -4908.4016
ENERGY: 880 169.5475 656.3222 2832.9525 0.0000 -201154.2381 21805.7152 47.4848 0.0000 0.0000 -175642.2159 0.0000 -175642.2159 -175642.2159 0.0000 16332.8033 -4909.9157 534946.2959 16332.8033 -4909.9157
ENERGY: 900 171.3069 693.7428 2832.3807 0.0000 -201495.0906 21954.4612 49.2414 0.0000 0.0000 -175793.9577 0.0000 -175793.9577 -175793.9577 0.0000 16430.0068 -4864.7661 534946.2959 16430.0068 -4864.7661
TCL: Setting parameter constraintScaling to 0.01953125
TCL: Minimizing for 100 steps
ETITLE: TS BOND ANGLE DIHED IMPRP ELECT VDW BOUNDARY MISC KINETIC TOTAL TEMP POTENTIAL TOTAL3 TEMPAVG PRESSURE GPRESSURE VOLUME PRESSAVG GPRESSAVG
ENERGY: 900 171.3069 693.7428 2832.3807 0.0000 -201495.0906 21954.4612 24.6207 0.0000 0.0000 -175818.5784 0.0000 -175818.5784 -175818.5784 0.0000 16451.8181 -27190.6139 534946.2959 16451.8181 -27190.6139
ENERGY: 920 165.1550 660.5512 2828.7472 0.0000 -201684.0892 22010.0348 25.0288 0.0000 0.0000 -175994.5722 0.0000 -175994.5722 -175994.5722 0.0000 16467.3092 -4845.4797 534946.2959 16467.3092 -4845.4797
ENERGY: 940 165.7221 670.2851 2828.6256 0.0000 -201796.5544 22060.9537 25.3430 0.0000 0.0000 -176045.6250 0.0000 -176045.6250 -176045.6250 0.0000 16487.2592 -4841.6702 534946.2959 16487.2592 -4841.6702
ENERGY: 960 164.9550 663.4214 2827.9371 0.0000 -202029.7244 22149.7408 25.9389 0.0000 0.0000 -176197.7311 0.0000 -176197.7311 -176197.7311 0.0000 16532.4645 -4823.2639 534946.2959 16532.4645 -4823.2639
ENERGY: 980 167.5655 661.9508 2825.3836 0.0000 -202192.9463 22208.4245 26.3533 0.0000 0.0000 -176303.2685 0.0000 -176303.2685 -176303.2685 0.0000 16553.4449 -4812.8717 534946.2959 16553.4449 -4812.8717
ENERGY: 1000 173.5605 700.5685 2826.2995 0.0000 -202451.9800 22332.7353 27.1313 0.0000 0.0000 -176391.6849 0.0000 -176391.6849 -176391.6849 0.0000 16631.5213 -4775.6171 534946.2959 16631.5213 -4775.6171
TCL: Setting parameter constraintScaling to 0
TCL: Minimizing for 5000 steps
ETITLE: TS BOND ANGLE DIHED IMPRP ELECT VDW BOUNDARY MISC KINETIC TOTAL TEMP POTENTIAL TOTAL3 TEMPAVG PRESSURE GPRESSURE VOLUME PRESSAVG GPRESSAVG
ENERGY: 1000 173.5605 700.5685 2826.2995 0.0000 -202451.9800 22332.7353 0.0000 0.0000 0.0000 -176418.8162 0.0000 -176418.8162 -176418.8162 0.0000 16654.7174 -27218.0011 534946.2959 16654.7174 -27218.0011
ENERGY: 2000 170.1489 664.3995 2797.8324 0.0000 -213616.3643 27293.3287 0.0000 0.0000 0.0000 -182690.6547 0.0000 -182690.6547 -182690.6547 0.0000 19267.1691 -3402.1798 534946.2959 19267.1691 -3402.1798
ENERGY: 3000 168.9278 667.2315 2800.2513 0.0000 -217154.6748 28736.4363 0.0000 0.0000 0.0000 -184781.8279 0.0000 -184781.8279 -184781.8279 0.0000 20029.6481 -3027.7844 534946.2959 20029.6481 -3027.7844
ENERGY: 4000 169.5609 668.7688 2794.7952 0.0000 -218671.3093 29415.2235 0.0000 0.0000 0.0000 -185622.9610 0.0000 -185622.9610 -185622.9610 0.0000 20391.3315 -2827.7850 534946.2959 20391.3315 -2827.7850
ENERGY: 5000 165.5535 667.6395 2791.5347 0.0000 -219325.8449 29723.3704 0.0000 0.0000 0.0000 -185977.7470 0.0000 -185977.7470 -185977.7470 0.0000 20563.1231 -2710.7816 534946.2959 20563.1231 -2710.7816
ENERGY: 6000 165.4815 664.1709 2786.3600 0.0000 -219736.0183 29839.7729 0.0000 0.0000 0.0000 -186280.2329 0.0000 -186280.2329 -186280.2329 0.0000 20615.7098 -2700.1718 534946.2959 20615.7098 -2700.1718
