Info: SIMULATION PARAMETERS:
Info: TIMESTEP               1
Info: NUMBER OF STEPS        0
Info: STEPS PER CYCLE        10
Info: PERIODIC CELL BASIS 1  72.449 0 0
Info: PERIODIC CELL BASIS 2  0 93.247 0
Info: PERIODIC CELL BASIS 3  0 0 79.185
Info: PERIODIC CELL CENTER   -0.248 -0.156 -0.047
Info: WRAPPING WATERS AROUND PERIODIC BOUNDARIES ON OUTPUT.
Info: WRAPPING ALL CLUSTERS AROUND PERIODIC BOUNDARIES ON OUTPUT.
Info: FIRST LDB TIMESTEP     50
Info: LAST LDB TIMESTEP     -1
Info: HOM BACKGROUND SCALING 1
Info: PME BACKGROUND SCALING 1
Info: MIN ATOMS PER PATCH    40
Info: VELOCITY FILE          ../replicas/rep5/equilibration/eq1.vel
Info: CENTER OF MASS MOVING INITIALLY? NO
Info: DIELECTRIC             1
Info: EXCLUDE                SCALED ONE-FOUR
Info: 1-4 ELECTROSTATICS SCALED BY 0.833333
Info: MODIFIED 1-4 VDW PARAMETERS WILL BE USED
Info: DCD FILENAME           ../replicas/rep5/equilibration/eq2.dcd
Info: DCD FREQUENCY          5000
Info: DCD FIRST STEP         5000
Info: DCD FILE WILL CONTAIN UNIT CELL DATA
Info: XST FILENAME           ../replicas/rep5/equilibration/eq2.xst
Info: XST FREQUENCY          5000
Info: NO VELOCITY DCD OUTPUT
Info: NO FORCE DCD OUTPUT
Info: OUTPUT FILENAME        ../replicas/rep5/equilibration/eq2
Info: RESTART FILENAME       ../replicas/rep5/equilibration/eq2.restart
Info: RESTART FREQUENCY      5000
Info: BINARY RESTART FILES WILL BE USED
Info: SWITCHING ACTIVE
Info: SWITCHING ON           10
Info: SWITCHING OFF          12
Info: PAIRLIST DISTANCE      13.5
Info: PAIRLIST SHRINK RATE   0.01
Info: PAIRLIST GROW RATE     0.01
Info: PAIRLIST TRIGGER       0.3
Info: PAIRLISTS PER CYCLE    2
Info: PAIRLISTS ENABLED
Info: MARGIN                 0.48
Info: HYDROGEN GROUP CUTOFF  2.5
Info: PATCH DIMENSION        16.48
Info: ENERGY OUTPUT STEPS    500
Info: CROSSTERM ENERGY INCLUDED IN DIHEDRAL
Info: TIMING OUTPUT STEPS    5000
Info: PRESSURE OUTPUT STEPS  500
Info: HARMONIC CONSTRAINTS ACTIVE
Info: HARMONIC CONS EXP      2
Info: HARMONIC CONS SCALING  10
Info: LANGEVIN DYNAMICS ACTIVE
Info: LANGEVIN TEMPERATURE   300
Info: LANGEVIN USING BBK INTEGRATOR
Info: LANGEVIN DAMPING COEFFICIENT IS 5 INVERSE PS
Info: LANGEVIN DYNAMICS NOT APPLIED TO HYDROGENS
Info: BERENDSEN PRESSURE COUPLING ACTIVE
Info:     TARGET PRESSURE IS 1 BAR
Info:     COMPRESSIBILITY ESTIMATE IS 4.57e-05 BAR^(-1)
Info:     RELAXATION TIME IS 100 FS
Info:     APPLIED EVERY 2 STEPS
Info:     PRESSURE CONTROL IS GROUP-BASED
Info:       CELL FLUCTUATION IS ISOTROPIC
Info: PARTICLE MESH EWALD (PME) ACTIVE
Info: PME TOLERANCE               1e-06
Info: PME EWALD COEFFICIENT       0.257952
Info: PME INTERPOLATION ORDER     4
Info: PME GRID DIMENSIONS         80 96 80
Info: PME MAXIMUM GRID SPACING    1
Info: FULL ELECTROSTATIC EVALUATION FREQUENCY      2
Info: USING VERLET I (r-RESPA) MTS SCHEME.
Info: C1 SPLITTING OF LONG RANGE ELECTROSTATICS
Info: PLACING ATOMS IN PATCHES BY HYDROGEN GROUPS
Info: RIGID BONDS TO HYDROGEN : WATER
Info:         ERROR TOLERANCE : 1e-05
Info:          MAX ITERATIONS : 100
Info: RIGID WATER USING SETTLE ALGORITHM
Info: RANDOM NUMBER SEED     1503719168
Info: USE HYDROGEN BONDS?    NO
Info: Using AMBER format force field!
Info: AMBER PARM FILE        ../build/complex.top
Info: COORDINATE PDB         ../replicas/rep5/equilibration/eq1.coor
Info: Exclusions in PARM file will be ignored!
Info: SCNB (VDW SCALING)     2
Info: USING ARITHMETIC MEAN TO COMBINE L-J SIGMA PARAMETERS
Info: SUMMARY OF PARAMETERS:
Info: 71 BONDS
Info: 145 ANGLES
Info: 76 DIHEDRAL
Info: 0 IMPROPER
Info: 0 CROSSTERM
Info: 0 VDW
Info: 190 VDW_PAIRS
Info: 0 NBTHOLE_PAIRS
Info: STRUCTURE SUMMARY:
Info: 49394 ATOMS
Info: 49448 BONDS
Info: 8698 ANGLES
Info: 18780 DIHEDRALS
Info: 0 IMPROPERS
Info: 0 CROSSTERMS
Info: 0 EXCLUSIONS
Info: 2336 CONSTRAINTS
Info: 44667 RIGID BONDS
Info: 103515 DEGREES OF FREEDOM
Info: 17225 HYDROGEN GROUPS
Info: 4 ATOMS IN LARGEST HYDROGEN GROUP
Info: 17225 MIGRATION GROUPS
Info: 4 ATOMS IN LARGEST MIGRATION GROUP
Info: TOTAL MASS = 301478 amu
Info: TOTAL CHARGE = 1.00115e-05 e
Info: MASS DENSITY = 0.935846 g/cm^3
Info: ATOM DENSITY = 0.0923345 atoms/A^3
Info: ADDED 70656 IMPLICIT EXCLUSIONS
Info: NONBONDED TABLE R-SQUARED SPACING: 0.0625
Info: NONBONDED TABLE SIZE: 769 POINTS
Info: REMOVING COM VELOCITY -0.0224185 0.018927 -0.0301382
TCL: Running for 5000 steps
ETITLE: TS BOND ANGLE DIHED IMPRP ELECT VDW BOUNDARY MISC KINETIC TOTAL TEMP POTENTIAL TOTAL3 TEMPAVG PRESSURE GPRESSURE VOLUME PRESSAVG GPRESSAVG
ENERGY: 0 385.6140 1223.8510 2903.4866 0.0000 -212683.8041 29568.2429 0.0000 0.0000 10017.4796 -168585.1300 97.3970 -178602.6096 -168575.3621 97.3970 -2356.8507 -2458.5255 534946.2959 -2356.8507 -2458.5255
ENERGY: 1000 1221.0189 1961.0948 3113.5710 0.0000 -193566.6812 26388.9127 783.6400 0.0000 24068.8879 -136029.5559 234.0147 -160098.4438 -136002.8764 218.3567 -10.4090 -5.3459 523058.7906 -7.7536 -8.4439
ENERGY: 2000 1425.2001 2142.2183 3144.1075 0.0000 -184279.9613 23303.5168 774.7363 0.0000 27808.4855 -125681.6969 270.3737 -153490.1824 -125643.3709 262.9268 43.9977 -22.6888 516804.7103 -24.2037 -24.4793
ENERGY: 3000 1506.9670 2159.0624 3131.7732 0.0000 -179171.6242 21552.7609 793.6042 0.0000 29425.8040 -120601.6524 286.0984 -150027.4565 -120556.0683 283.4725 -121.1845 -51.5602 512305.2344 -3.5431 -3.3726
ENERGY: 4000 1529.8597 2246.0573 3150.1478 0.0000 -177295.4491 21071.1769 805.8701 0.0000 30198.7302 -118293.6072 293.6133 -148492.3374 -118246.0750 291.5937 20.8282 13.4352 508840.7271 -3.3514 -3.8118
ENERGY: 5000 1533.9133 2213.7650 3133.2633 0.0000 -176468.1232 20619.2356 789.3596 0.0000 30552.2742 -117626.3122 297.0507 -148178.5864 -117581.6825 296.3629 -0.8027 9.5340 506391.0991 -7.6618 -7.4302
TCL: Setting parameter constraintScaling to 5.0
TCL: Running for 5000 steps
ETITLE: TS BOND ANGLE DIHED IMPRP ELECT VDW BOUNDARY MISC KINETIC TOTAL TEMP POTENTIAL TOTAL3 TEMPAVG PRESSURE GPRESSURE VOLUME PRESSAVG GPRESSAVG
ENERGY: 5000 1533.9133 2213.7650 3133.2633 0.0000 -176468.1232 20619.2356 394.6798 0.0000 30550.2370 -118023.0292 297.0309 -148573.2662 -117977.4908 297.0309 -34.5596 -22.6363 506391.0991 -34.5596 -22.6363
ENERGY: 6000 1644.4652 2312.6916 3160.2990 0.0000 -176130.9930 20507.9996 648.8540 0.0000 30532.2389 -117324.4447 296.8559 -147856.6836 -117277.6394 297.4055 -152.2599 -39.5933 503296.0386 -23.7402 -23.2882
ENERGY: 7000 1617.6932 2358.1709 3169.2167 0.0000 -175845.3752 20325.1154 647.5768 0.0000 30611.6504 -117115.9518 297.6280 -147727.6022 -117069.7268 299.0690 -64.1384 -11.5831 502436.6868 -1.3933 -2.0450
ENERGY: 8000 1591.0390 2390.0872 3165.4625 0.0000 -175398.6426 19982.8455 652.2602 0.0000 30941.7561 -116675.1922 300.8376 -147616.9482 -116641.0251 299.2911 -69.9709 -3.5887 502616.8583 9.7397 9.9056
ENERGY: 9000 1576.0570 2307.8318 3168.7848 0.0000 -175781.4352 20393.7349 627.1230 0.0000 30846.6101 -116861.2937 299.9125 -147707.9038 -116814.7322 300.4658 28.3459 -30.0386 500483.2575 -8.5560 -8.0992
ENERGY: 10000 1592.4294 2302.3978 3177.4067 0.0000 -175446.3988 19870.7203 664.3716 0.0000 30929.7547 -116909.3183 300.7209 -147839.0730 -116880.8821 300.4901 -71.7305 -58.0527 500121.1457 -4.0203 -3.6967
TCL: Setting parameter constraintScaling to 2.5
TCL: Running for 5000 steps
ETITLE: TS BOND ANGLE DIHED IMPRP ELECT VDW BOUNDARY MISC KINETIC TOTAL TEMP POTENTIAL TOTAL3 TEMPAVG PRESSURE GPRESSURE VOLUME PRESSAVG GPRESSAVG
ENERGY: 10000 1592.4294 2302.3978 3177.4067 0.0000 -175446.3988 19870.7203 332.1858 0.0000 30927.7011 -117243.5578 300.7009 -148171.2588 -117199.8081 300.7009 -129.1007 -122.4311 500121.1457 -129.1007 -122.4311
ENERGY: 11000 1602.0772 2395.8370 3172.7527 0.0000 -175746.5672 20339.0909 488.6091 0.0000 30836.9872 -116911.2131 299.8189 -147748.2003 -116854.9324 300.3416 29.1224 56.0642 501628.8839 15.2148 15.2345
ENERGY: 12000 1663.2355 2367.4004 3181.1558 0.0000 -175697.9289 20213.8397 525.1604 0.0000 30918.2166 -116828.9205 300.6087 -147747.1371 -116783.9815 299.9713 -53.6728 -27.5542 501901.5016 2.8135 2.9053
ENERGY: 13000 1614.4754 2330.8496 3204.1357 0.0000 -175627.0112 20252.0518 498.3668 0.0000 30810.9741 -116916.1579 299.5660 -147727.1320 -116873.0622 299.0913 -14.1799 34.4254 502385.2038 13.9342 14.1852
ENERGY: 14000 1635.1146 2369.3131 3213.3738 0.0000 -175554.4408 19923.1248 545.6626 0.0000 30852.0340 -117015.8178 299.9652 -147867.8519 -116977.1243 299.5670 1.1716 4.7234 500806.0186 -9.4362 -9.2215
ENERGY: 15000 1629.8824 2288.4871 3178.1144 0.0000 -175889.2680 20349.2959 517.0350 0.0000 30650.8083 -117275.6449 298.0088 -147926.4532 -117235.3786 298.7344 29.2973 27.7388 499180.5154 -10.3188 -10.6042
TCL: Setting parameter constraintScaling to 1.25
TCL: Running for 5000 steps
ETITLE: TS BOND ANGLE DIHED IMPRP ELECT VDW BOUNDARY MISC KINETIC TOTAL TEMP POTENTIAL TOTAL3 TEMPAVG PRESSURE GPRESSURE VOLUME PRESSAVG GPRESSAVG
ENERGY: 15000 1629.8824 2288.4871 3178.1144 0.0000 -175889.2680 20349.2959 258.5175 0.0000 30648.8012 -117536.1695 297.9892 -148184.9707 -117496.0963 297.9892 79.2687 74.3201 499180.5154 79.2687 74.3201
ENERGY: 16000 1581.6785 2373.1227 3169.5056 0.0000 -175546.4392 20070.3480 373.3237 0.0000 30881.3003 -117097.1605 300.2498 -147978.4608 -117051.3537 300.1953 -152.8897 -76.2288 500129.0143 8.8666 9.1492
ENERGY: 17000 1648.8413 2440.6391 3192.2267 0.0000 -175857.1463 20238.8515 390.5387 0.0000 30917.6743 -117028.3747 300.6034 -147946.0490 -116987.8432 301.0134 -6.4480 56.0990 499427.8396 -3.6224 -3.7273
ENERGY: 18000 1615.9022 2347.3814 3193.8863 0.0000 -175102.5642 19715.9943 403.9200 0.0000 30727.3452 -117098.1347 298.7529 -147825.4800 -117046.9228 300.1978 31.5975 86.8036 499108.1425 3.1158 2.8259
ENERGY: 19000 1633.1773 2323.1986 3219.1967 0.0000 -175695.5692 19978.2586 391.6491 0.0000 30701.5180 -117448.5709 298.5018 -148150.0889 -117400.4239 299.3846 -75.7785 -60.8899 496741.8608 -14.5484 -14.3517
ENERGY: 20000 1617.5794 2373.5943 3192.4752 0.0000 -175678.9633 19887.5835 389.2159 0.0000 30730.2922 -117488.2228 298.7816 -148218.5150 -117463.6111 298.9052 -59.1523 -4.7123 498755.1953 2.4675 2.9563
TCL: Setting parameter constraintScaling to 0.625
TCL: Running for 5000 steps
ETITLE: TS BOND ANGLE DIHED IMPRP ELECT VDW BOUNDARY MISC KINETIC TOTAL TEMP POTENTIAL TOTAL3 TEMPAVG PRESSURE GPRESSURE VOLUME PRESSAVG GPRESSAVG
ENERGY: 20000 1617.5794 2373.5943 3192.4752 0.0000 -175678.9633 19887.5835 194.6079 0.0000 30728.2316 -117684.8913 298.7615 -148413.1229 -117641.0897 298.7615 -120.4465 -68.5312 498755.1953 -120.4465 -68.5312
ENERGY: 21000 1638.3131 2343.5080 3204.9564 0.0000 -176161.3647 20306.1588 295.5673 0.0000 30898.9947 -117473.8665 300.4218 -148372.8612 -117423.8430 299.4928 -41.2012 -61.0161 498859.8542 3.8718 3.4922
ENERGY: 22000 1646.4303 2396.5386 3210.0288 0.0000 -175962.5534 20138.9128 311.5335 0.0000 30715.1806 -117543.9289 298.6346 -148259.1095 -117502.9075 299.0556 43.0888 20.0866 496951.2734 -20.8750 -20.5587
ENERGY: 23000 1618.2874 2424.2061 3220.6393 0.0000 -175653.4654 20055.5796 329.7562 0.0000 30710.1336 -117294.8631 298.5856 -148004.9967 -117251.4324 300.0395 51.8638 67.3667 498855.2353 12.2433 11.8489
ENERGY: 24000 1609.3625 2360.3031 3194.6059 0.0000 -176188.9653 20223.4923 303.4850 0.0000 30634.3324 -117863.3841 297.8486 -148497.7164 -117819.0217 298.9612 -148.7237 -53.4652 499928.3529 6.6180 6.2850
ENERGY: 25000 1672.3025 2372.7319 3192.2090 0.0000 -175769.0462 20176.0472 309.9348 0.0000 30841.1767 -117204.6440 299.8597 -148045.8207 -117171.2845 299.6295 -109.3558 -126.9481 499008.6775 -2.6772 -2.8055
TCL: Setting parameter constraintScaling to 0.3125
TCL: Running for 5000 steps
ETITLE: TS BOND ANGLE DIHED IMPRP ELECT VDW BOUNDARY MISC KINETIC TOTAL TEMP POTENTIAL TOTAL3 TEMPAVG PRESSURE GPRESSURE VOLUME PRESSAVG GPRESSAVG
ENERGY: 25000 1672.3025 2372.7319 3192.2090 0.0000 -175769.0462 20176.0472 154.9674 0.0000 30839.1262 -117361.6619 299.8397 -148200.7881 -117320.4504 299.8397 -163.5940 -176.3738 499008.6775 -163.5940 -176.3738
ENERGY: 26000 1609.6500 2421.1175 3188.0648 0.0000 -175471.7318 20034.4416 251.5089 0.0000 31000.7556 -116966.1935 301.4112 -147966.9491 -116908.2601 301.3381 143.6927 206.2682 499003.3858 10.7019 10.6274
ENERGY: 27000 1571.6658 2361.6950 3215.5192 0.0000 -175091.6345 19735.0896 241.9020 0.0000 30868.6713 -117097.0916 300.1270 -147965.7629 -117048.1029 300.1485 -87.7310 -91.4718 498362.3389 -0.3192 -0.3561
ENERGY: 28000 1627.4183 2375.5384 3226.5773 0.0000 -175729.6059 19993.1956 256.6633 0.0000 30935.6807 -117314.5322 300.7785 -148250.2129 -117261.7819 299.8663 -2.5613 71.8241 497779.9898 -0.8662 -0.3533
ENERGY: 29000 1646.0094 2396.4964 3213.8149 0.0000 -175384.8012 19878.0999 252.4670 0.0000 30777.3273 -117220.5864 299.2389 -147997.9137 -117170.9908 299.5620 -62.0855 -68.4652 498961.1953 14.1167 14.2747
ENERGY: 30000 1647.7980 2438.3832 3160.4474 0.0000 -175955.5235 20314.2828 254.8645 0.0000 30721.8186 -117417.9290 298.6992 -148139.7476 -117376.4295 299.6989 -63.3821 -27.3330 498321.7664 10.0369 10.1223
TCL: Setting parameter constraintScaling to 0.15625
TCL: Running for 5000 steps
ETITLE: TS BOND ANGLE DIHED IMPRP ELECT VDW BOUNDARY MISC KINETIC TOTAL TEMP POTENTIAL TOTAL3 TEMPAVG PRESSURE GPRESSURE VOLUME PRESSAVG GPRESSAVG
ENERGY: 30000 1647.7980 2438.3832 3160.4474 0.0000 -175955.5235 20314.2828 127.4322 0.0000 30719.7961 -117547.3838 298.6795 -148267.1799 -117501.6147 298.6795 -50.7417 -18.2216 498321.7664 -50.7417 -18.2216
ENERGY: 31000 1599.2215 2426.7841 3191.4963 0.0000 -175856.4258 19980.7261 205.4327 0.0000 30880.3277 -117572.4374 300.2403 -148452.7651 -117527.1931 299.8856 -103.4709 -90.4250 498505.1887 1.1730 0.6197
ENERGY: 32000 1598.4169 2457.4793 3259.3372 0.0000 -175861.8868 19970.7786 196.6950 0.0000 30782.9244 -117596.2554 299.2933 -148379.1798 -117554.1419 300.2881 -70.2854 1.5117 497035.3541 -1.3253 -1.2807
ENERGY: 33000 1625.1534 2461.4510 3179.2335 0.0000 -176090.9221 20195.3868 209.1466 0.0000 30862.7331 -117557.8178 300.0692 -148420.5509 -117510.1530 299.7554 38.8970 37.0929 496138.5468 -1.3765 -1.5757
ENERGY: 34000 1672.4130 2368.6174 3235.7458 0.0000 -175462.2165 20158.6977 219.6298 0.0000 30690.1705 -117116.9423 298.3915 -147807.1128 -117071.4340 299.7202 58.3500 90.9470 498428.1110 5.0414 5.1958
ENERGY: 35000 1613.3766 2363.3219 3229.2600 0.0000 -175494.5917 19926.0349 211.0721 0.0000 30855.8395 -117295.6867 300.0022 -148151.5262 -117252.4634 300.1612 -0.2611 103.9159 498534.8053 7.3420 7.2944
TCL: Setting parameter constraintScaling to 0.078125
TCL: Running for 5000 steps
ETITLE: TS BOND ANGLE DIHED IMPRP ELECT VDW BOUNDARY MISC KINETIC TOTAL TEMP POTENTIAL TOTAL3 TEMPAVG PRESSURE GPRESSURE VOLUME PRESSAVG GPRESSAVG
ENERGY: 35000 1613.3766 2363.3219 3229.2600 0.0000 -175494.5917 19926.0349 105.5361 0.0000 30853.7962 -117403.2660 299.9824 -148257.0622 -117358.9347 299.9824 -38.8563 58.4367 498534.8053 -38.8563 58.4367
ENERGY: 36000 1649.2793 2442.4513 3229.0040 0.0000 -175907.8520 20242.9809 155.6382 0.0000 30680.2020 -117508.2963 298.2945 -148188.4983 -117466.3284 298.5131 24.1859 40.1089 499402.1180 -4.1095 -4.2794
ENERGY: 37000 1667.1815 2412.4150 3236.8794 0.0000 -175880.1752 20218.3825 152.6206 0.0000 30823.7285 -117368.9676 299.6900 -148192.6962 -117317.0539 299.6999 37.4643 -50.1389 498917.3410 2.9994 3.0605
ENERGY: 38000 1605.3609 2461.6921 3227.8924 0.0000 -175616.5325 20089.9310 164.6270 0.0000 30806.5412 -117260.4880 299.5229 -148067.0292 -117206.7570 299.9200 51.7237 -7.7262 498616.5201 3.1996 3.3334
ENERGY: 39000 1615.7370 2402.1118 3235.9444 0.0000 -175565.6156 19874.7575 170.3535 0.0000 30933.5720 -117333.1394 300.7580 -148266.7114 -117296.1543 299.9181 -69.5622 8.4311 498812.6344 8.1095 8.4349
ENERGY: 40000 1671.1522 2468.5779 3240.3748 0.0000 -176240.6462 20121.8787 162.9322 0.0000 30893.8883 -117681.8421 300.3722 -148575.7304 -117637.2895 300.0667 98.4465 89.9740 496841.4788 1.2476 1.1257
TCL: Setting parameter constraintScaling to 0.0390625
TCL: Running for 5000 steps
ETITLE: TS BOND ANGLE DIHED IMPRP ELECT VDW BOUNDARY MISC KINETIC TOTAL TEMP POTENTIAL TOTAL3 TEMPAVG PRESSURE GPRESSURE VOLUME PRESSAVG GPRESSAVG
ENERGY: 40000 1671.1522 2468.5779 3240.3748 0.0000 -176240.6462 20121.8787 81.4661 0.0000 30891.8264 -117765.3701 300.3521 -148657.1965 -117722.9660 300.3521 79.7063 72.2852 496841.4788 79.7063 72.2852
ENERGY: 41000 1635.7304 2413.4823 3204.8461 0.0000 -176159.8448 20085.4598 111.8844 0.0000 30659.7715 -118048.6702 298.0959 -148708.4417 -117990.0599 299.3595 -108.8663 33.7773 497310.6288 -4.2779 -3.7959
ENERGY: 42000 1638.6266 2415.6110 3201.8400 0.0000 -176088.8872 20221.6342 124.5180 0.0000 30816.2841 -117670.3733 299.6176 -148486.6573 -117630.3914 299.0968 -28.4359 8.6282 498670.2569 8.2970 7.9284
ENERGY: 43000 1630.8815 2407.2951 3189.6064 0.0000 -176206.2215 20265.1965 127.6632 0.0000 30683.1479 -117902.4310 298.3232 -148585.5788 -117848.2014 299.6925 -37.5809 -22.4439 497309.6925 -7.4034 -7.6174
ENERGY: 44000 1630.4330 2377.6480 3216.9010 0.0000 -176005.1809 20069.2323 134.2831 0.0000 30696.8344 -117879.8493 298.4563 -148576.6837 -117834.0001 299.0714 -9.7708 -14.5894 496314.6253 -5.3042 -5.5139
ENERGY: 45000 1671.7293 2426.3539 3227.3391 0.0000 -176089.8997 19933.4665 131.9478 0.0000 30782.3389 -117916.7241 299.2876 -148699.0630 -117870.8361 298.6221 -206.8486 -98.8847 496665.3470 8.6343 8.9335
TCL: Setting parameter constraintScaling to 0.01953125
TCL: Running for 5000 steps
ETITLE: TS BOND ANGLE DIHED IMPRP ELECT VDW BOUNDARY MISC KINETIC TOTAL TEMP POTENTIAL TOTAL3 TEMPAVG PRESSURE GPRESSURE VOLUME PRESSAVG GPRESSAVG
ENERGY: 45000 1671.7293 2426.3539 3227.3391 0.0000 -176089.8997 19933.4665 65.9739 0.0000 30780.3082 -117984.7288 299.2678 -148765.0370 -117940.5093 299.2678 -220.2380 -113.8963 496665.3470 -220.2380 -113.8963
ENERGY: 46000 1676.2980 2449.4265 3244.3885 0.0000 -176075.5579 20045.6037 86.5623 0.0000 31025.7804 -117547.4985 301.6545 -148573.2789 -117497.3116 300.5185 -153.4522 -49.4419 497351.9753 2.8502 2.6475
ENERGY: 47000 1637.7427 2351.1168 3231.5932 0.0000 -176098.4528 20038.5371 86.1530 0.0000 30922.2932 -117831.0169 300.6483 -148753.3100 -117787.6062 299.2631 -65.8913 -75.0086 496815.0984 -9.2224 -8.4472
ENERGY: 48000 1664.2403 2372.0436 3232.8335 0.0000 -176300.4042 20415.9434 88.7584 0.0000 30348.5525 -118178.0325 295.0700 -148526.5850 -118127.7220 298.8114 99.6339 92.7349 497254.1440 0.0556 0.1510
ENERGY: 49000 1700.5273 2362.9942 3199.6560 0.0000 -176029.5443 19974.4508 91.4574 0.0000 30915.0363 -117785.4224 300.5778 -148700.4587 -117745.1913 298.8659 -146.6669 -58.5205 497723.3949 -3.4188 -3.2783
ENERGY: 50000 1575.6364 2412.6347 3205.7081 0.0000 -176040.4903 20033.2196 80.6687 0.0000 30737.7789 -117994.8440 298.8543 -148732.6229 -117948.6994 299.9112 -13.0122 -41.4940 495796.4464 -16.6071 -16.2648
TCL: Setting parameter constraintScaling to 0
TCL: Running for 5000 steps
ETITLE: TS BOND ANGLE DIHED IMPRP ELECT VDW BOUNDARY MISC KINETIC TOTAL TEMP POTENTIAL TOTAL3 TEMPAVG PRESSURE GPRESSURE VOLUME PRESSAVG GPRESSAVG
ENERGY: 50000 1575.6364 2412.6347 3205.7081 0.0000 -176040.4903 20033.2196 0.0000 0.0000 30735.7314 -118077.5602 298.8344 -148813.2916 -118032.2137 298.8344 -33.7434 -60.6650 495796.4464 -33.7434 -60.6650
ENERGY: 51000 1646.1506 2375.2207 3241.6862 0.0000 -175881.6439 20117.5975 0.0000 0.0000 30773.0075 -117727.9812 299.1969 -148500.9888 -117689.3492 299.7533 -57.1876 -7.3571 496167.6121 -6.3701 -7.0402
ENERGY: 52000 1660.6862 2427.3292 3203.6900 0.0000 -176280.0839 20183.4640 0.0000 0.0000 30811.6759 -117993.2386 299.5728 -148804.9145 -117954.8316 299.2572 196.7617 139.5101 496256.6660 4.6886 4.9647
ENERGY: 53000 1656.6886 2426.1741 3221.7273 0.0000 -176300.5248 20181.3373 0.0000 0.0000 30695.8308 -118118.7666 298.4465 -148814.5975 -118079.5570 298.6844 -29.7181 -39.0290 496587.4742 5.4923 5.6338
ENERGY: 54000 1615.5125 2397.7906 3222.7459 0.0000 -176061.7548 20021.4066 0.0000 0.0000 30885.7248 -117918.5744 300.2928 -148804.2992 -117882.2239 299.1545 118.9923 71.7658 496033.9489 7.3905 7.4174
ENERGY: 55000 1668.5452 2426.7513 3254.2778 0.0000 -175761.3536 20053.3283 0.0000 0.0000 31013.5954 -117344.8557 301.5360 -148358.4511 -117303.1629 301.1208 -145.6061 -48.9741 497701.7223 11.4113 10.8201
