Info: SIMULATION PARAMETERS:
Info: TIMESTEP               1
Info: NUMBER OF STEPS        0
Info: STEPS PER CYCLE        10
Info: PERIODIC CELL BASIS 1  72.449 0 0
Info: PERIODIC CELL BASIS 2  0 93.247 0
Info: PERIODIC CELL BASIS 3  0 0 79.185
Info: PERIODIC CELL CENTER   -0.248 -0.156 -0.047
Info: WRAPPING WATERS AROUND PERIODIC BOUNDARIES ON OUTPUT.
Info: WRAPPING ALL CLUSTERS AROUND PERIODIC BOUNDARIES ON OUTPUT.
Info: FIRST LDB TIMESTEP     50
Info: LAST LDB TIMESTEP     -1
Info: HOM BACKGROUND SCALING 1
Info: PME BACKGROUND SCALING 1
Info: MIN ATOMS PER PATCH    40
Info: VELOCITY FILE          ../replicas/rep74/equilibration/eq1.vel
Info: CENTER OF MASS MOVING INITIALLY? NO
Info: DIELECTRIC             1
Info: EXCLUDE                SCALED ONE-FOUR
Info: 1-4 ELECTROSTATICS SCALED BY 0.833333
Info: MODIFIED 1-4 VDW PARAMETERS WILL BE USED
Info: DCD FILENAME           ../replicas/rep74/equilibration/eq2.dcd
Info: DCD FREQUENCY          5000
Info: DCD FIRST STEP         5000
Info: DCD FILE WILL CONTAIN UNIT CELL DATA
Info: XST FILENAME           ../replicas/rep74/equilibration/eq2.xst
Info: XST FREQUENCY          5000
Info: NO VELOCITY DCD OUTPUT
Info: NO FORCE DCD OUTPUT
Info: OUTPUT FILENAME        ../replicas/rep74/equilibration/eq2
Info: RESTART FILENAME       ../replicas/rep74/equilibration/eq2.restart
Info: RESTART FREQUENCY      5000
Info: BINARY RESTART FILES WILL BE USED
Info: SWITCHING ACTIVE
Info: SWITCHING ON           10
Info: SWITCHING OFF          12
Info: PAIRLIST DISTANCE      13.5
Info: PAIRLIST SHRINK RATE   0.01
Info: PAIRLIST GROW RATE     0.01
Info: PAIRLIST TRIGGER       0.3
Info: PAIRLISTS PER CYCLE    2
Info: PAIRLISTS ENABLED
Info: MARGIN                 0.48
Info: HYDROGEN GROUP CUTOFF  2.5
Info: PATCH DIMENSION        16.48
Info: ENERGY OUTPUT STEPS    500
Info: CROSSTERM ENERGY INCLUDED IN DIHEDRAL
Info: TIMING OUTPUT STEPS    5000
Info: PRESSURE OUTPUT STEPS  500
Info: HARMONIC CONSTRAINTS ACTIVE
Info: HARMONIC CONS EXP      2
Info: HARMONIC CONS SCALING  10
Info: LANGEVIN DYNAMICS ACTIVE
Info: LANGEVIN TEMPERATURE   300
Info: LANGEVIN USING BBK INTEGRATOR
Info: LANGEVIN DAMPING COEFFICIENT IS 5 INVERSE PS
Info: LANGEVIN DYNAMICS NOT APPLIED TO HYDROGENS
Info: BERENDSEN PRESSURE COUPLING ACTIVE
Info:     TARGET PRESSURE IS 1 BAR
Info:     COMPRESSIBILITY ESTIMATE IS 4.57e-05 BAR^(-1)
Info:     RELAXATION TIME IS 100 FS
Info:     APPLIED EVERY 2 STEPS
Info:     PRESSURE CONTROL IS GROUP-BASED
Info:       CELL FLUCTUATION IS ISOTROPIC
Info: PARTICLE MESH EWALD (PME) ACTIVE
Info: PME TOLERANCE               1e-06
Info: PME EWALD COEFFICIENT       0.257952
Info: PME INTERPOLATION ORDER     4
Info: PME GRID DIMENSIONS         80 96 80
Info: PME MAXIMUM GRID SPACING    1
Info: FULL ELECTROSTATIC EVALUATION FREQUENCY      2
Info: USING VERLET I (r-RESPA) MTS SCHEME.
Info: C1 SPLITTING OF LONG RANGE ELECTROSTATICS
Info: PLACING ATOMS IN PATCHES BY HYDROGEN GROUPS
Info: RIGID BONDS TO HYDROGEN : WATER
Info:         ERROR TOLERANCE : 1e-05
Info:          MAX ITERATIONS : 100
Info: RIGID WATER USING SETTLE ALGORITHM
Info: RANDOM NUMBER SEED     1503694338
Info: USE HYDROGEN BONDS?    NO
Info: Using AMBER format force field!
Info: AMBER PARM FILE        ../build/complex.top
Info: COORDINATE PDB         ../replicas/rep74/equilibration/eq1.coor
Info: Exclusions in PARM file will be ignored!
Info: SCNB (VDW SCALING)     2
Info: USING ARITHMETIC MEAN TO COMBINE L-J SIGMA PARAMETERS
Info: SUMMARY OF PARAMETERS:
Info: 71 BONDS
Info: 145 ANGLES
Info: 76 DIHEDRAL
Info: 0 IMPROPER
Info: 0 CROSSTERM
Info: 0 VDW
Info: 190 VDW_PAIRS
Info: 0 NBTHOLE_PAIRS
Info: STRUCTURE SUMMARY:
Info: 49394 ATOMS
Info: 49448 BONDS
Info: 8698 ANGLES
Info: 18780 DIHEDRALS
Info: 0 IMPROPERS
Info: 0 CROSSTERMS
Info: 0 EXCLUSIONS
Info: 2336 CONSTRAINTS
Info: 44667 RIGID BONDS
Info: 103515 DEGREES OF FREEDOM
Info: 17225 HYDROGEN GROUPS
Info: 4 ATOMS IN LARGEST HYDROGEN GROUP
Info: 17225 MIGRATION GROUPS
Info: 4 ATOMS IN LARGEST MIGRATION GROUP
Info: TOTAL MASS = 301478 amu
Info: TOTAL CHARGE = 1.00115e-05 e
Info: MASS DENSITY = 0.935846 g/cm^3
Info: ATOM DENSITY = 0.0923345 atoms/A^3
Info: ADDED 70656 IMPLICIT EXCLUSIONS
Info: NONBONDED TABLE R-SQUARED SPACING: 0.0625
Info: NONBONDED TABLE SIZE: 769 POINTS
Info: REMOVING COM VELOCITY 0.0206584 0.0488119 -0.029383
TCL: Running for 5000 steps
ETITLE: TS BOND ANGLE DIHED IMPRP ELECT VDW BOUNDARY MISC KINETIC TOTAL TEMP POTENTIAL TOTAL3 TEMPAVG PRESSURE GPRESSURE VOLUME PRESSAVG GPRESSAVG
ENERGY: 0 400.4220 1217.7241 2922.8582 0.0000 -212836.6209 29609.8031 0.0000 0.0000 10013.9009 -168671.9127 97.3622 -178685.8136 -168662.2262 97.3622 -2363.1052 -2465.5167 534946.2959 -2363.1052 -2465.5167
ENERGY: 1000 1294.1168 1994.1703 3122.1432 0.0000 -193478.2910 26312.0311 760.0333 0.0000 23981.3304 -136014.4659 233.1634 -159995.7963 -135977.1621 218.2810 -5.1579 -16.4062 522720.9259 -11.6749 -11.7640
ENERGY: 2000 1451.0666 2136.9919 3127.3676 0.0000 -184962.2890 23642.0582 816.4038 0.0000 27867.0861 -125921.3147 270.9435 -153788.4008 -125882.7745 263.4128 -99.0191 -20.8710 514669.4813 -35.3764 -35.6603
ENERGY: 3000 1519.6903 2236.7502 3138.4557 0.0000 -179443.9764 21736.2815 792.3953 0.0000 29520.2230 -120500.1805 287.0164 -150020.4035 -120457.5850 283.2004 -7.9669 -46.6121 510049.3498 -20.0853 -20.4445
ENERGY: 4000 1583.1613 2250.7464 3149.3431 0.0000 -177334.2338 20893.3193 819.1721 0.0000 30305.7483 -118332.7434 294.6538 -148638.4916 -118302.1820 293.8099 -97.3851 9.0995 506400.6401 -7.3786 -7.9868
ENERGY: 5000 1599.4755 2284.4335 3112.9741 0.0000 -176445.9759 20567.6758 833.8455 0.0000 30703.3035 -117344.2680 298.5192 -148047.5715 -117303.5920 296.9311 -31.0377 9.3320 503829.3947 -17.8729 -18.1311
TCL: Setting parameter constraintScaling to 5.0
TCL: Running for 5000 steps
ETITLE: TS BOND ANGLE DIHED IMPRP ELECT VDW BOUNDARY MISC KINETIC TOTAL TEMP POTENTIAL TOTAL3 TEMPAVG PRESSURE GPRESSURE VOLUME PRESSAVG GPRESSAVG
ENERGY: 5000 1599.4755 2284.4335 3112.9741 0.0000 -176445.9759 20567.6758 416.9228 0.0000 30701.2598 -117763.2345 298.4993 -148464.4942 -117719.7276 298.4993 -24.3475 15.2825 503829.3947 -24.3475 15.2825
ENERGY: 6000 1658.4549 2340.3234 3176.4905 0.0000 -175497.8184 20100.2965 642.8175 0.0000 30589.9386 -116989.4971 297.4169 -147579.4357 -116938.2722 298.4043 -127.2160 -21.9550 503243.3060 -1.4199 -0.9893
ENERGY: 7000 1634.4999 2310.4751 3163.3427 0.0000 -175608.3799 20425.5338 655.3948 0.0000 30593.2727 -116825.8609 297.4494 -147419.1336 -116780.6455 298.8298 28.5535 -3.2692 502918.9444 10.4566 10.2281
ENERGY: 8000 1594.0608 2348.8102 3152.9176 0.0000 -175373.4970 20218.7033 658.9576 0.0000 30953.7775 -116446.2701 300.9544 -147400.0476 -116405.1673 300.0442 83.3841 43.5069 501858.6402 -9.2091 -9.4466
ENERGY: 9000 1624.5927 2263.1928 3174.6218 0.0000 -174797.6308 19812.9004 633.8820 0.0000 31032.9424 -116255.4988 301.7241 -147288.4411 -116205.9162 302.1842 -113.3150 -29.4282 501765.9602 -7.0330 -6.8201
ENERGY: 10000 1598.7221 2300.4050 3184.7838 0.0000 -175095.5652 19885.9570 624.4928 0.0000 30833.2487 -116667.9557 299.7826 -147501.2044 -116619.6032 300.7138 -20.9369 2.5676 501304.6173 -0.2008 -0.6799
TCL: Setting parameter constraintScaling to 2.5
TCL: Running for 5000 steps
ETITLE: TS BOND ANGLE DIHED IMPRP ELECT VDW BOUNDARY MISC KINETIC TOTAL TEMP POTENTIAL TOTAL3 TEMPAVG PRESSURE GPRESSURE VOLUME PRESSAVG GPRESSAVG
ENERGY: 10000 1598.7221 2300.4050 3184.7838 0.0000 -175095.5652 19885.9570 312.2464 0.0000 30831.2339 -116982.2170 299.7630 -147813.4508 -116939.7649 299.7630 -137.7439 -109.1046 501304.6173 -137.7439 -109.1046
ENERGY: 11000 1629.8934 2285.3686 3215.5531 0.0000 -175589.0766 20372.7836 509.8020 0.0000 30906.8051 -116668.8708 300.4977 -147575.6759 -116619.0203 299.7666 36.9454 11.3790 500717.3690 4.9160 4.2392
ENERGY: 12000 1613.8913 2378.5482 3180.9771 0.0000 -175219.5258 20113.4382 513.4557 0.0000 30509.6118 -116909.6035 296.6359 -147419.2152 -116861.7070 300.0162 -189.2254 -59.8182 501462.8191 -3.5593 -3.1779
ENERGY: 13000 1596.7419 2280.0563 3155.0322 0.0000 -175564.4654 20207.8280 508.6928 0.0000 30752.2912 -117063.8229 298.9954 -147816.1142 -117014.4542 299.7642 -148.7452 -13.1696 501218.6986 -3.6798 -4.4317
ENERGY: 14000 1618.0296 2358.1651 3157.3373 0.0000 -175397.3928 19967.3395 529.1245 0.0000 30598.6206 -117168.7762 297.5014 -147767.3968 -117107.6242 299.8716 -28.2757 -46.1111 499918.6036 9.8839 9.7250
ENERGY: 15000 1557.2479 2325.0321 3162.8151 0.0000 -174933.7545 19852.8474 516.3095 0.0000 30843.0129 -116676.4896 299.8775 -147519.5025 -116619.7121 300.4021 -23.2135 -101.3577 501381.9083 17.2695 17.1150
TCL: Setting parameter constraintScaling to 1.25
TCL: Running for 5000 steps
ETITLE: TS BOND ANGLE DIHED IMPRP ELECT VDW BOUNDARY MISC KINETIC TOTAL TEMP POTENTIAL TOTAL3 TEMPAVG PRESSURE GPRESSURE VOLUME PRESSAVG GPRESSAVG
ENERGY: 15000 1557.2479 2325.0321 3162.8151 0.0000 -174933.7545 19852.8474 258.1547 0.0000 30840.9436 -116936.7137 299.8574 -147777.6573 -116893.8841 299.8574 -57.6262 -134.1357 501381.9083 -57.6262 -134.1357
ENERGY: 16000 1595.4099 2431.7360 3192.2526 0.0000 -175384.0524 20041.6091 411.5584 0.0000 30638.6781 -117072.8082 297.8908 -147711.4864 -117017.0589 300.1878 65.4319 50.3642 500366.7525 3.8440 3.5926
ENERGY: 17000 1579.7042 2353.7589 3187.1344 0.0000 -175259.0881 19982.9634 400.1312 0.0000 31018.4032 -116736.9929 301.5828 -147755.3960 -116705.5184 300.5886 -131.2986 -94.4184 500311.8844 -1.2629 -0.9900
ENERGY: 18000 1660.3484 2414.9033 3207.2619 0.0000 -175314.5969 19910.2798 410.5374 0.0000 30796.5564 -116914.7096 299.4258 -147711.2660 -116870.8532 301.2350 -18.2755 -26.0194 499020.5199 -1.8835 -2.5944
ENERGY: 19000 1596.9231 2315.4463 3183.2775 0.0000 -175220.6551 19604.9858 420.0271 0.0000 30707.2398 -117392.7555 298.5574 -148099.9953 -117336.6288 300.1904 -11.7100 67.4267 498033.1387 0.6310 0.1046
ENERGY: 20000 1637.8605 2411.5922 3186.1210 0.0000 -175746.7155 20119.4897 395.0512 0.0000 30663.8564 -117332.7446 298.1356 -147996.6010 -117296.0385 298.8168 63.8746 85.2261 498056.0626 -12.4724 -12.1273
TCL: Setting parameter constraintScaling to 0.625
TCL: Running for 5000 steps
ETITLE: TS BOND ANGLE DIHED IMPRP ELECT VDW BOUNDARY MISC KINETIC TOTAL TEMP POTENTIAL TOTAL3 TEMPAVG PRESSURE GPRESSURE VOLUME PRESSAVG GPRESSAVG
ENERGY: 20000 1637.8605 2411.5922 3186.1210 0.0000 -175746.7155 20119.4897 197.5256 0.0000 30661.8150 -117532.3116 298.1158 -148194.1266 -117490.1202 298.1158 48.8756 62.6864 498056.0626 48.8756 62.6864
ENERGY: 21000 1635.3522 2349.3966 3179.5637 0.0000 -175646.1124 20113.3204 300.9350 0.0000 30870.1152 -117197.4293 300.1410 -148067.5444 -117134.9851 300.5887 -2.7199 63.7496 497820.6052 -6.4450 -6.1428
ENERGY: 22000 1655.5516 2413.7581 3162.1176 0.0000 -175684.7113 20149.0498 304.4636 0.0000 31210.6923 -116789.0782 303.4523 -147999.7705 -116748.0483 300.5357 -187.6808 -97.0204 498656.7785 6.8184 6.0948
ENERGY: 23000 1590.9777 2411.1969 3198.6479 0.0000 -175565.1592 19935.0507 301.5046 0.0000 31083.7142 -117044.0672 302.2178 -148127.7815 -117002.8480 300.6464 -142.7297 -36.0005 499373.5466 -2.9172 -2.7618
ENERGY: 24000 1679.1247 2393.7656 3216.7219 0.0000 -176050.1863 20355.5159 300.4192 0.0000 30999.6423 -117104.9968 301.4004 -148104.6390 -117063.4789 300.6493 -112.4119 16.6075 500433.2268 2.4873 3.0002
ENERGY: 25000 1667.9867 2410.8059 3195.5498 0.0000 -175698.7442 19993.3419 312.2239 0.0000 30881.6827 -117237.1533 300.2535 -148118.8360 -117189.7465 299.7101 -146.2945 -54.3574 499999.7682 -8.6685 -8.3459
TCL: Setting parameter constraintScaling to 0.3125
TCL: Running for 5000 steps
ETITLE: TS BOND ANGLE DIHED IMPRP ELECT VDW BOUNDARY MISC KINETIC TOTAL TEMP POTENTIAL TOTAL3 TEMPAVG PRESSURE GPRESSURE VOLUME PRESSAVG GPRESSAVG
ENERGY: 25000 1667.9867 2410.8059 3195.5498 0.0000 -175698.7442 19993.3419 156.1119 0.0000 30879.6187 -117395.3293 300.2334 -148274.9480 -117353.3152 300.2334 -184.1533 -92.7749 499999.7682 -184.1533 -92.7749
ENERGY: 26000 1647.3941 2412.5432 3209.4990 0.0000 -175905.7430 19982.6015 252.7846 0.0000 30766.7889 -117634.1315 299.1364 -148400.9205 -117585.6352 300.1313 -88.6134 -54.6421 498512.3114 -4.3864 -4.5014
ENERGY: 27000 1674.6393 2364.9429 3210.1018 0.0000 -176071.4818 20289.2161 254.2695 0.0000 30721.0107 -117557.3015 298.6913 -148278.3122 -117508.1247 299.6093 85.4039 111.4047 497887.2581 3.4128 3.7594
ENERGY: 28000 1634.5939 2425.8243 3219.8331 0.0000 -175812.1331 20098.4076 240.9896 0.0000 30776.7208 -117415.7639 299.2330 -148192.4847 -117367.5994 299.0309 -23.5759 24.9673 499116.0924 -2.7793 -2.8601
ENERGY: 29000 1606.1846 2351.6877 3217.6897 0.0000 -176244.9780 20426.6155 260.8170 0.0000 30599.4287 -117782.5549 297.5092 -148381.9836 -117730.7080 298.4894 -89.7966 1.0141 498318.9583 -6.3197 -6.2573
ENERGY: 30000 1586.8816 2457.0219 3236.3451 0.0000 -175611.3456 20114.4114 270.4485 0.0000 30823.9032 -117122.3338 299.6917 -147946.2371 -117072.2878 300.0325 -10.3027 40.3903 497812.0975 -5.3586 -5.6752
TCL: Setting parameter constraintScaling to 0.15625
TCL: Running for 5000 steps
ETITLE: TS BOND ANGLE DIHED IMPRP ELECT VDW BOUNDARY MISC KINETIC TOTAL TEMP POTENTIAL TOTAL3 TEMPAVG PRESSURE GPRESSURE VOLUME PRESSAVG GPRESSAVG
ENERGY: 30000 1586.8816 2457.0219 3236.3451 0.0000 -175611.3456 20114.4114 135.2242 0.0000 30821.8649 -117259.5964 299.6719 -148081.4613 -117217.7851 299.6719 -16.9676 32.2117 497812.0975 -16.9676 32.2117
ENERGY: 31000 1655.5446 2376.2943 3231.9913 0.0000 -176257.4034 20251.2368 180.6912 0.0000 30774.8290 -117786.8160 299.2146 -148561.6451 -117749.9282 299.4432 -16.0985 -60.9891 496119.3818 -5.9687 -5.7759
ENERGY: 32000 1668.4052 2427.9880 3203.5608 0.0000 -176121.8302 20157.5719 193.4861 0.0000 30805.6582 -117665.1600 299.5143 -148470.8182 -117623.4460 298.7108 -11.9927 -40.9908 496390.9603 -1.8192 -1.5387
ENERGY: 33000 1584.2267 2344.2121 3212.1788 0.0000 -175796.8736 20008.4087 202.4187 0.0000 30933.1203 -117512.3084 300.7536 -148445.4287 -117475.2063 299.7577 -48.6412 -48.9181 498860.4396 16.1205 16.5624
ENERGY: 34000 1611.4371 2434.4517 3222.8689 0.0000 -175711.2851 19991.1861 196.6046 0.0000 30756.6753 -117498.0614 299.0381 -148254.7367 -117453.5217 299.1202 -107.4112 -8.0704 498149.1677 -5.5606 -5.3574
ENERGY: 35000 1643.9998 2425.3709 3230.4311 0.0000 -175801.2312 20088.6427 220.6965 0.0000 30974.6104 -117217.4798 301.1570 -148192.0902 -117172.8557 301.0298 130.1298 28.3680 498338.7760 -6.0333 -6.1967
TCL: Setting parameter constraintScaling to 0.078125
TCL: Running for 5000 steps
ETITLE: TS BOND ANGLE DIHED IMPRP ELECT VDW BOUNDARY MISC KINETIC TOTAL TEMP POTENTIAL TOTAL3 TEMPAVG PRESSURE GPRESSURE VOLUME PRESSAVG GPRESSAVG
ENERGY: 35000 1643.9998 2425.3709 3230.4311 0.0000 -175801.2312 20088.6427 110.3483 0.0000 30972.5882 -117329.8502 301.1373 -148302.4384 -117290.5771 301.1373 117.2386 14.1943 498338.7760 117.2386 14.1943
ENERGY: 36000 1653.8483 2395.0439 3212.8372 0.0000 -175742.5658 20125.4361 151.8916 0.0000 30872.8556 -117330.6530 300.1677 -148203.5087 -117295.0363 299.9093 129.1619 63.1004 498060.2890 7.5934 7.8649
ENERGY: 37000 1645.0839 2408.6049 3238.1018 0.0000 -175789.4331 19910.4047 157.5708 0.0000 30913.0767 -117516.5903 300.5587 -148429.6670 -117468.1531 299.9111 -39.1466 -93.0522 497213.9646 -0.1533 -0.4523
ENERGY: 38000 1608.6617 2383.2985 3249.1680 0.0000 -175611.8592 19829.4637 163.3356 0.0000 31108.9924 -117268.9394 302.4635 -148377.9318 -117222.3986 301.1279 -155.7238 -4.4320 497529.5874 -5.7112 -6.0224
ENERGY: 39000 1679.3711 2375.3639 3221.3673 0.0000 -175513.5157 19940.6269 161.4896 0.0000 30973.8141 -117161.4828 301.1492 -148135.2969 -117114.2449 301.3343 -73.2568 -54.5207 497051.5059 -6.2599 -6.1235
ENERGY: 40000 1718.9132 2358.0539 3221.0327 0.0000 -175549.6986 20008.2224 170.8893 0.0000 30800.1684 -117272.4186 299.4609 -148072.5870 -117237.5506 299.5167 95.4095 106.3352 496577.9317 0.2937 0.2525
TCL: Setting parameter constraintScaling to 0.0390625
TCL: Running for 5000 steps
ETITLE: TS BOND ANGLE DIHED IMPRP ELECT VDW BOUNDARY MISC KINETIC TOTAL TEMP POTENTIAL TOTAL3 TEMPAVG PRESSURE GPRESSURE VOLUME PRESSAVG GPRESSAVG
ENERGY: 40000 1718.9132 2358.0539 3221.0327 0.0000 -175549.6986 20008.2224 85.4447 0.0000 30798.1408 -117359.8909 299.4412 -148158.0317 -117319.6736 299.4412 92.1394 87.5399 496577.9317 92.1394 87.5399
ENERGY: 41000 1612.8812 2416.7186 3226.4021 0.0000 -175692.8259 20064.3183 112.8913 0.0000 30669.9670 -117589.6474 298.1950 -148259.6145 -117539.8444 300.1004 -11.9630 24.2966 495920.8518 -1.8416 -2.2875
ENERGY: 42000 1678.3244 2444.1427 3199.6733 0.0000 -176090.0582 20193.0487 113.7088 0.0000 30894.3479 -117566.8125 300.3766 -148461.1604 -117539.3088 299.7572 -187.3158 -104.2171 496508.6540 4.7889 4.9467
ENERGY: 43000 1637.8583 2460.3356 3213.9430 0.0000 -176144.2479 20297.8733 126.7913 0.0000 30697.6636 -117709.7828 298.4643 -148407.4464 -117672.4409 300.3522 16.0415 106.8843 497846.9921 11.8309 11.9545
ENERGY: 44000 1670.2638 2442.1781 3242.3014 0.0000 -175646.6023 19862.4171 132.0943 0.0000 30854.1575 -117443.1901 299.9859 -148297.3476 -117403.7868 299.7666 -75.9088 -31.7274 496023.2472 5.4897 5.7920
ENERGY: 45000 1638.2845 2365.8926 3188.8351 0.0000 -175630.6796 19990.9260 118.0680 0.0000 30566.9352 -117761.7382 297.1933 -148328.6734 -117701.8016 299.4644 -83.1689 -91.1119 497504.9223 8.5676 8.8960
TCL: Setting parameter constraintScaling to 0.01953125
TCL: Running for 5000 steps
ETITLE: TS BOND ANGLE DIHED IMPRP ELECT VDW BOUNDARY MISC KINETIC TOTAL TEMP POTENTIAL TOTAL3 TEMPAVG PRESSURE GPRESSURE VOLUME PRESSAVG GPRESSAVG
ENERGY: 45000 1638.2845 2365.8926 3188.8351 0.0000 -175630.6796 19990.9260 59.0340 0.0000 30564.8976 -117822.8099 297.1735 -148387.7075 -117777.3722 297.1735 -90.6948 -101.9504 497504.9223 -90.6948 -101.9504
ENERGY: 46000 1632.6858 2450.1424 3218.6188 0.0000 -175857.6524 19979.4658 79.0287 0.0000 30946.9102 -117550.8008 300.8877 -148497.7110 -117512.8716 299.7107 -91.7719 -71.1541 495920.7490 -4.9439 -5.1423
ENERGY: 47000 1658.3447 2356.4605 3220.8213 0.0000 -176007.5328 20159.2533 81.3051 0.0000 31096.2785 -117435.0694 302.3399 -148531.3479 -117392.2645 300.0056 -57.1835 -13.7247 496662.3772 1.3906 1.1375
ENERGY: 48000 1580.1751 2359.4378 3207.4416 0.0000 -175953.5014 19989.4617 90.2499 0.0000 30822.4481 -117904.2873 299.6776 -148726.7354 -117853.8657 299.0159 86.5498 35.3249 496594.9951 5.5220 5.7907
ENERGY: 49000 1602.8845 2369.4933 3182.2104 0.0000 -176196.3077 20143.9956 89.0327 0.0000 30661.1010 -118147.5902 298.1088 -148808.6912 -118097.6196 298.0899 -38.6127 35.4944 497057.0122 20.3145 20.5897
ENERGY: 50000 1623.0654 2409.0208 3218.3529 0.0000 -176009.0617 19966.9388 93.2438 0.0000 30920.5711 -117777.8690 300.6316 -148698.4401 -117744.0511 299.0351 53.4163 56.5792 495037.8935 -11.6152 -11.7204
TCL: Setting parameter constraintScaling to 0
TCL: Running for 5000 steps
ETITLE: TS BOND ANGLE DIHED IMPRP ELECT VDW BOUNDARY MISC KINETIC TOTAL TEMP POTENTIAL TOTAL3 TEMPAVG PRESSURE GPRESSURE VOLUME PRESSAVG GPRESSAVG
ENERGY: 50000 1623.0654 2409.0208 3218.3529 0.0000 -176009.0617 19966.9388 0.0000 0.0000 30918.5189 -117873.1650 300.6116 -148791.6839 -117830.4452 300.6116 39.6282 37.2201 495037.8935 39.6282 37.2201
ENERGY: 51000 1613.6866 2423.2578 3213.3546 0.0000 -176000.5290 20082.2136 0.0000 0.0000 30618.1569 -118049.8595 297.6913 -148668.0163 -118015.6452 299.4503 -13.3540 -24.5977 495848.0235 12.0850 11.5501
ENERGY: 52000 1691.6421 2468.1805 3209.3830 0.0000 -176348.2380 20144.0869 0.0000 0.0000 30874.9190 -117960.0264 300.1877 -148834.9454 -117915.5727 299.2169 86.0409 6.2549 494887.6839 -0.7432 -0.8955
ENERGY: 53000 1655.2660 2451.5745 3164.4199 0.0000 -175208.5425 19748.3285 0.0000 0.0000 30769.7468 -117419.2068 299.1652 -148188.9536 -117371.8304 300.0742 -15.2393 -7.8552 496660.6338 2.5520 1.8252
ENERGY: 54000 1609.6506 2412.2410 3196.1898 0.0000 -175895.6031 20005.9077 0.0000 0.0000 30887.7324 -117783.8815 300.3123 -148671.6140 -117735.2322 299.4936 -59.5493 -41.7377 496661.3652 6.2087 5.8804
ENERGY: 55000 1641.6738 2390.6741 3204.4838 0.0000 -176200.3504 20212.4905 0.0000 0.0000 30845.3359 -117905.6923 299.9001 -148751.0282 -117861.3420 299.9512 -83.0077 -66.8748 497689.5949 6.6303 5.9398
