Info: SIMULATION PARAMETERS:
Info: TIMESTEP               2
Info: NUMBER OF STEPS        0
Info: STEPS PER CYCLE        10
Info: PERIODIC CELL BASIS 1  72.449 0 0
Info: PERIODIC CELL BASIS 2  0 93.247 0
Info: PERIODIC CELL BASIS 3  0 0 79.185
Info: PERIODIC CELL CENTER   -0.248 -0.156 -0.047
Info: WRAPPING WATERS AROUND PERIODIC BOUNDARIES ON OUTPUT.
Info: WRAPPING ALL CLUSTERS AROUND PERIODIC BOUNDARIES ON OUTPUT.
Info: FIRST LDB TIMESTEP     50
Info: LAST LDB TIMESTEP     -1
Info: HOM BACKGROUND SCALING 1
Info: PME BACKGROUND SCALING 1
Info: MIN ATOMS PER PATCH    40
Info: INITIAL TEMPERATURE    0
Info: CENTER OF MASS MOVING INITIALLY? NO
Info: DIELECTRIC             1
Info: EXCLUDE                SCALED ONE-FOUR
Info: 1-4 ELECTROSTATICS SCALED BY 0.833333
Info: MODIFIED 1-4 VDW PARAMETERS WILL BE USED
Info: NO DCD TRAJECTORY OUTPUT
Info: NO EXTENDED SYSTEM TRAJECTORY OUTPUT
Info: NO VELOCITY DCD OUTPUT
Info: NO FORCE DCD OUTPUT
Info: OUTPUT FILENAME        ../replicas/rep60/equilibration/eq0
Info: NO RESTART FILE
Info: SWITCHING ACTIVE
Info: SWITCHING ON           10
Info: SWITCHING OFF          12
Info: PAIRLIST DISTANCE      13.5
Info: PAIRLIST SHRINK RATE   0.01
Info: PAIRLIST GROW RATE     0.01
Info: PAIRLIST TRIGGER       0.3
Info: PAIRLISTS PER CYCLE    2
Info: PAIRLISTS ENABLED
Info: MARGIN                 0
Info: HYDROGEN GROUP CUTOFF  2.5
Info: PATCH DIMENSION        16
Info: ENERGY OUTPUT STEPS    500
Info: CROSSTERM ENERGY INCLUDED IN DIHEDRAL
Info: TIMING OUTPUT STEPS    5000
Info: PRESSURE OUTPUT STEPS  500
Info: HARMONIC CONSTRAINTS ACTIVE
Info: HARMONIC CONS EXP      2
Info: HARMONIC CONS SCALING  10
Info: CONJUGATE GRADIENT MINIMIZATION ACTIVE
Info: LINE MINIMIZATION GOAL = 0.001
Info: BABY STEP SIZE = 0.01
Info: TINY STEP SIZE = 1e-06
Info: PARTICLE MESH EWALD (PME) ACTIVE
Info: PME TOLERANCE               1e-06
Info: PME EWALD COEFFICIENT       0.257952
Info: PME INTERPOLATION ORDER     4
Info: PME GRID DIMENSIONS         80 96 80
Info: PME MAXIMUM GRID SPACING    1
Info: FULL ELECTROSTATIC EVALUATION FREQUENCY      2
Info: USING VERLET I (r-RESPA) MTS SCHEME.
Info: C1 SPLITTING OF LONG RANGE ELECTROSTATICS
Info: PLACING ATOMS IN PATCHES BY HYDROGEN GROUPS
Info: RIGID BONDS TO HYDROGEN : ALL
Info:         ERROR TOLERANCE : 1e-05
Info:          MAX ITERATIONS : 100
Info: RIGID WATER USING SETTLE ALGORITHM
Info: RANDOM NUMBER SEED     1503690976
Info: USE HYDROGEN BONDS?    NO
Info: Using AMBER format force field!
Info: AMBER PARM FILE        ../build/complex.top
Info: COORDINATE PDB         ../build/complex.pdb
Info: Exclusions in PARM file will be ignored!
Info: SCNB (VDW SCALING)     2
Info: USING ARITHMETIC MEAN TO COMBINE L-J SIGMA PARAMETERS
Info: SUMMARY OF PARAMETERS:
Info: 71 BONDS
Info: 145 ANGLES
Info: 76 DIHEDRAL
Info: 0 IMPROPER
Info: 0 CROSSTERM
Info: 0 VDW
Info: 190 VDW_PAIRS
Info: 0 NBTHOLE_PAIRS
Info: STRUCTURE SUMMARY:
Info: 49394 ATOMS
Info: 49448 BONDS
Info: 8698 ANGLES
Info: 18780 DIHEDRALS
Info: 0 IMPROPERS
Info: 0 CROSSTERMS
Info: 0 EXCLUSIONS
Info: 2336 CONSTRAINTS
Info: 47058 RIGID BONDS
Info: 101124 DEGREES OF FREEDOM
Info: 17225 HYDROGEN GROUPS
Info: 4 ATOMS IN LARGEST HYDROGEN GROUP
Info: 17225 MIGRATION GROUPS
Info: 4 ATOMS IN LARGEST MIGRATION GROUP
Info: TOTAL MASS = 301478 amu
Info: TOTAL CHARGE = 1.00115e-05 e
Info: MASS DENSITY = 0.935846 g/cm^3
Info: ATOM DENSITY = 0.0923345 atoms/A^3
Info: ADDED 70656 IMPLICIT EXCLUSIONS
Info: NONBONDED TABLE R-SQUARED SPACING: 0.0625
Info: NONBONDED TABLE SIZE: 769 POINTS
Info: REMOVING COM VELOCITY 0 0 0
TCL: Minimizing for 100 steps
ETITLE: TS BOND ANGLE DIHED IMPRP ELECT VDW BOUNDARY MISC KINETIC TOTAL TEMP POTENTIAL TOTAL3 TEMPAVG PRESSURE GPRESSURE VOLUME PRESSAVG GPRESSAVG
ENERGY: 0 155.4176 1012.2698 2855.7272 0.0000 -154496.7912 207729.2052 0.0468 0.0000 0.0000 57255.8754 0.0000 57255.8754 57255.8754 0.0000 116350.2532 86546.1670 534946.2959 116350.2532 86546.1670
ENERGY: 20 304.7554 935.7912 2893.4663 0.0000 -158672.9408 17936.6593 143.9454 0.0000 0.0000 -136458.3231 0.0000 -136458.3231 -136458.3231 0.0000 16523.9386 -239.4560 534946.2959 16523.9386 -239.4560
ENERGY: 40 198.7456 799.5729 2896.9273 0.0000 -162811.4531 16417.9537 221.3030 0.0000 0.0000 -142276.9506 0.0000 -142276.9506 -142276.9506 0.0000 15011.2703 -2135.4699 534946.2959 15011.2703 -2135.4699
ENERGY: 60 130.5282 715.3440 2898.2166 0.0000 -167496.1582 15446.7537 315.2796 0.0000 0.0000 -147990.0361 0.0000 -147990.0361 -147990.0361 0.0000 13793.8834 -3799.3990 534946.2959 13793.8834 -3799.3990
ENERGY: 80 431.2719 765.6306 2904.3787 0.0000 -169937.5300 15121.1524 372.0123 0.0000 0.0000 -150343.0842 0.0000 -150343.0842 -150343.0842 0.0000 13270.3306 -4577.2449 534946.2959 13270.3306 -4577.2449
ENERGY: 100 119.3853 710.0599 2905.2591 0.0000 -171259.7139 14991.7868 387.3613 0.0000 0.0000 -152145.8614 0.0000 -152145.8614 -152145.8614 0.0000 13056.2651 -4908.1726 534946.2959 13056.2651 -4908.1726
TCL: Setting parameter constraintScaling to 5.0
TCL: Minimizing for 100 steps
ETITLE: TS BOND ANGLE DIHED IMPRP ELECT VDW BOUNDARY MISC KINETIC TOTAL TEMP POTENTIAL TOTAL3 TEMPAVG PRESSURE GPRESSURE VOLUME PRESSAVG GPRESSAVG
ENERGY: 100 119.3853 710.0599 2905.2591 0.0000 -171259.7139 14991.7868 193.6807 0.0000 0.0000 -152339.5421 0.0000 -152339.5421 -152339.5421 0.0000 13672.7713 -23021.8190 534946.2959 13672.7713 -23021.8190
ENERGY: 120 108.8821 687.5837 2912.9266 0.0000 -172865.8858 14798.2706 281.1917 0.0000 0.0000 -154077.0312 0.0000 -154077.0312 -154077.0312 0.0000 13218.2545 -4906.0172 534946.2959 13218.2545 -4906.0172
ENERGY: 140 309.4170 708.8653 2913.8025 0.0000 -174236.6995 14731.4801 326.6402 0.0000 0.0000 -155246.4943 0.0000 -155246.4943 -155246.4943 0.0000 12971.5237 -5303.2496 534946.2959 12971.5237 -5303.2496
ENERGY: 160 265.3072 683.1360 2923.1780 0.0000 -176275.6866 14757.3569 382.9024 0.0000 0.0000 -157263.8061 0.0000 -157263.8061 -157263.8061 0.0000 12740.9150 -5741.5087 534946.2959 12740.9150 -5741.5087
ENERGY: 180 268.8447 744.0955 2928.5658 0.0000 -178995.6133 15023.5484 473.3131 0.0000 0.0000 -159557.2457 0.0000 -159557.2457 -159557.2457 0.0000 12521.5925 -6222.4279 534946.2959 12521.5925 -6222.4279
ENERGY: 200 238.9416 694.0842 2941.3654 0.0000 -181556.4771 15587.1000 546.2698 0.0000 0.0000 -161548.7161 0.0000 -161548.7161 -161548.7161 0.0000 12582.6495 -6429.4103 534946.2959 12582.6495 -6429.4103
TCL: Setting parameter constraintScaling to 2.5
TCL: Minimizing for 100 steps
ETITLE: TS BOND ANGLE DIHED IMPRP ELECT VDW BOUNDARY MISC KINETIC TOTAL TEMP POTENTIAL TOTAL3 TEMPAVG PRESSURE GPRESSURE VOLUME PRESSAVG GPRESSAVG
ENERGY: 200 238.9416 694.0842 2941.3654 0.0000 -181556.4771 15587.1000 273.1349 0.0000 0.0000 -161821.8510 0.0000 -161821.8510 -161821.8510 0.0000 13229.5622 -25660.2327 534946.2959 13229.5622 -25660.2327
ENERGY: 220 246.6682 677.7608 2933.0081 0.0000 -182076.9714 15471.8976 337.6903 0.0000 0.0000 -162409.9464 0.0000 -162409.9464 -162409.9464 0.0000 12971.4782 -6095.2523 534946.2959 12971.4782 -6095.2523
ENERGY: 240 115.5964 674.5004 2928.4556 0.0000 -182573.2911 15511.0632 345.0254 0.0000 0.0000 -162998.6501 0.0000 -162998.6501 -162998.6501 0.0000 13036.6385 -6121.8471 534946.2959 13036.6385 -6121.8471
ENERGY: 260 144.9217 676.5175 2920.8483 0.0000 -184117.4471 15842.1610 391.7989 0.0000 0.0000 -164141.1998 0.0000 -164141.1998 -164141.1998 0.0000 13045.1892 -6262.8052 534946.2959 13045.1892 -6262.8052
ENERGY: 280 172.1278 701.3346 2917.6128 0.0000 -185430.2800 16231.6756 455.1798 0.0000 0.0000 -164952.3494 0.0000 -164952.3494 -164952.3494 0.0000 13144.0723 -6343.9372 534946.2959 13144.0723 -6343.9372
ENERGY: 300 126.6644 639.5699 2916.2535 0.0000 -186096.8603 16446.7227 481.4088 0.0000 0.0000 -165486.2408 0.0000 -165486.2408 -165486.2408 0.0000 13208.1510 -6348.0655 534946.2959 13208.1510 -6348.0655
TCL: Setting parameter constraintScaling to 1.25
TCL: Minimizing for 100 steps
ETITLE: TS BOND ANGLE DIHED IMPRP ELECT VDW BOUNDARY MISC KINETIC TOTAL TEMP POTENTIAL TOTAL3 TEMPAVG PRESSURE GPRESSURE VOLUME PRESSAVG GPRESSAVG
ENERGY: 300 126.6644 639.5699 2916.2535 0.0000 -186096.8603 16446.7227 240.7044 0.0000 0.0000 -165726.9452 0.0000 -165726.9452 -165726.9452 0.0000 13656.5215 -26358.2945 534946.2959 13656.5215 -26358.2945
ENERGY: 320 132.0107 624.5838 2911.1478 0.0000 -186667.8818 16580.6028 272.7743 0.0000 0.0000 -166146.7624 0.0000 -166146.7624 -166146.7624 0.0000 13629.9440 -5979.6276 534946.2959 13629.9440 -5979.6276
ENERGY: 340 152.2861 625.1620 2910.6633 0.0000 -187381.6908 16812.7000 296.2007 0.0000 0.0000 -166584.6787 0.0000 -166584.6787 -166584.6787 0.0000 13648.0234 -6017.0186 534946.2959 13648.0234 -6017.0186
ENERGY: 360 179.0341 676.0610 2908.3187 0.0000 -188876.2541 17319.8683 357.0375 0.0000 0.0000 -167435.9345 0.0000 -167435.9345 -167435.9345 0.0000 13860.2025 -6013.1212 534946.2959 13860.2025 -6013.1212
ENERGY: 380 151.6443 645.8718 2903.4442 0.0000 -190151.6129 17818.8465 387.3829 0.0000 0.0000 -168244.4233 0.0000 -168244.4233 -168244.4233 0.0000 14003.6009 -5985.6271 534946.2959 14003.6009 -5985.6271
ENERGY: 400 138.9749 653.7931 2903.3055 0.0000 -190567.1513 17950.1699 396.6937 0.0000 0.0000 -168524.2142 0.0000 -168524.2142 -168524.2142 0.0000 14126.9291 -5939.2080 534946.2959 14126.9291 -5939.2080
TCL: Setting parameter constraintScaling to 0.625
TCL: Minimizing for 100 steps
ETITLE: TS BOND ANGLE DIHED IMPRP ELECT VDW BOUNDARY MISC KINETIC TOTAL TEMP POTENTIAL TOTAL3 TEMPAVG PRESSURE GPRESSURE VOLUME PRESSAVG GPRESSAVG
ENERGY: 400 138.9749 653.7931 2903.3055 0.0000 -190567.1513 17950.1699 198.3468 0.0000 0.0000 -168722.5610 0.0000 -168722.5610 -168722.5610 0.0000 14425.2029 -26635.8419 534946.2959 14425.2029 -26635.8419
ENERGY: 420 149.0463 637.8716 2894.1956 0.0000 -190951.8677 18050.4110 215.6295 0.0000 0.0000 -169004.7136 0.0000 -169004.7136 -169004.7136 0.0000 14404.8642 -5697.2274 534946.2959 14404.8642 -5697.2274
ENERGY: 440 253.6862 649.1739 2892.8503 0.0000 -192028.1530 18399.6301 256.8968 0.0000 0.0000 -169575.9157 0.0000 -169575.9157 -169575.9157 0.0000 14408.7084 -5774.5959 534946.2959 14408.7084 -5774.5959
ENERGY: 460 182.1167 648.1288 2883.1947 0.0000 -193380.5614 18912.5665 300.7783 0.0000 0.0000 -170453.7763 0.0000 -170453.7763 -170453.7763 0.0000 14658.8320 -5702.1775 534946.2959 14658.8320 -5702.1775
ENERGY: 480 144.0661 652.0778 2879.8001 0.0000 -193873.2480 19117.2548 311.9622 0.0000 0.0000 -170768.0871 0.0000 -170768.0871 -170768.0871 0.0000 14816.2524 -5627.7202 534946.2959 14816.2524 -5627.7202
ENERGY: 500 188.8687 641.4637 2883.5859 0.0000 -194604.0643 19420.7141 313.5285 0.0000 0.0000 -171155.9036 0.0000 -171155.9036 -171155.9036 0.0000 14859.0362 -5610.0290 534946.2959 14859.0362 -5610.0290
TCL: Setting parameter constraintScaling to 0.3125
TCL: Minimizing for 100 steps
ETITLE: TS BOND ANGLE DIHED IMPRP ELECT VDW BOUNDARY MISC KINETIC TOTAL TEMP POTENTIAL TOTAL3 TEMPAVG PRESSURE GPRESSURE VOLUME PRESSAVG GPRESSAVG
ENERGY: 500 188.8687 641.4637 2883.5859 0.0000 -194604.0643 19420.7141 156.7642 0.0000 0.0000 -171312.6678 0.0000 -171312.6678 -171312.6678 0.0000 15057.5122 -26956.3541 534946.2959 15057.5122 -26956.3541
ENERGY: 520 149.3159 654.2333 2878.3065 0.0000 -194944.1537 19516.8939 169.6391 0.0000 0.0000 -171575.7649 0.0000 -171575.7649 -171575.7649 0.0000 15148.8770 -5397.3289 534946.2959 15148.8770 -5397.3289
ENERGY: 540 165.9929 664.5242 2873.6909 0.0000 -195328.7168 19652.6173 180.0102 0.0000 0.0000 -171791.8813 0.0000 -171791.8813 -171791.8813 0.0000 15183.1278 -5395.2271 534946.2959 15183.1278 -5395.2271
ENERGY: 560 239.6124 690.1170 2877.8796 0.0000 -195842.5675 19836.3925 193.1719 0.0000 0.0000 -172005.3941 0.0000 -172005.3941 -172005.3941 0.0000 15200.6981 -5432.1552 534946.2959 15200.6981 -5432.1552
ENERGY: 580 192.8079 690.4635 2872.1590 0.0000 -196530.8258 20095.1194 204.3415 0.0000 0.0000 -172475.9344 0.0000 -172475.9344 -172475.9344 0.0000 15397.2263 -5334.4052 534946.2959 15397.2263 -5334.4052
ENERGY: 600 174.7022 659.6829 2863.8411 0.0000 -197596.6069 20530.8096 224.1408 0.0000 0.0000 -173143.4302 0.0000 -173143.4302 -173143.4302 0.0000 15602.3420 -5251.5744 534946.2959 15602.3420 -5251.5744
TCL: Setting parameter constraintScaling to 0.15625
TCL: Minimizing for 100 steps
ETITLE: TS BOND ANGLE DIHED IMPRP ELECT VDW BOUNDARY MISC KINETIC TOTAL TEMP POTENTIAL TOTAL3 TEMPAVG PRESSURE GPRESSURE VOLUME PRESSAVG GPRESSAVG
ENERGY: 600 174.7022 659.6829 2863.8411 0.0000 -197596.6069 20530.8096 112.0704 0.0000 0.0000 -173255.5006 0.0000 -173255.5006 -173255.5006 0.0000 15725.0019 -26991.9060 534946.2959 15725.0019 -26991.9060
ENERGY: 620 197.3598 719.6849 2867.4982 0.0000 -198152.1055 20716.7817 124.9000 0.0000 0.0000 -173525.8808 0.0000 -173525.8808 -173525.8808 0.0000 15804.4086 -5136.1570 534946.2959 15804.4086 -5136.1570
ENERGY: 640 163.7893 647.1581 2856.2417 0.0000 -198343.8833 20780.9547 128.7183 0.0000 0.0000 -173767.0213 0.0000 -173767.0213 -173767.0213 0.0000 15745.1981 -5165.6648 534946.2959 15745.1981 -5165.6648
ENERGY: 660 266.2367 776.9352 2875.8066 0.0000 -198868.1567 20988.4467 129.9872 0.0000 0.0000 -173830.7442 0.0000 -173830.7442 -173830.7442 0.0000 15958.1650 -5069.3225 534946.2959 15958.1650 -5069.3225
ENERGY: 680 198.8763 667.9220 2867.4321 0.0000 -199877.7505 21407.1193 142.4635 0.0000 0.0000 -174593.9374 0.0000 -174593.9374 -174593.9374 0.0000 16077.5938 -5015.5578 534946.2959 16077.5938 -5015.5578
ENERGY: 700 218.9859 667.4545 2843.6256 0.0000 -201555.2866 22207.1047 174.8484 0.0000 0.0000 -175443.2675 0.0000 -175443.2675 -175443.2675 0.0000 16446.5714 -4841.6262 534946.2959 16446.5714 -4841.6262
TCL: Setting parameter constraintScaling to 0.078125
TCL: Minimizing for 100 steps
ETITLE: TS BOND ANGLE DIHED IMPRP ELECT VDW BOUNDARY MISC KINETIC TOTAL TEMP POTENTIAL TOTAL3 TEMPAVG PRESSURE GPRESSURE VOLUME PRESSAVG GPRESSAVG
ENERGY: 700 218.9859 667.4545 2843.6256 0.0000 -201555.2866 22207.1047 87.4242 0.0000 0.0000 -175530.6917 0.0000 -175530.6917 -175530.6917 0.0000 16526.6942 -27144.9426 534946.2959 16526.6942 -27144.9426
ENERGY: 720 382.9899 722.4545 2838.9372 0.0000 -201713.9735 22189.6090 89.5209 0.0000 0.0000 -175490.4619 0.0000 -175490.4619 -175490.4619 0.0000 16514.5432 -4810.4533 534946.2959 16514.5432 -4810.4533
ENERGY: 740 166.1561 663.4275 2829.0508 0.0000 -201943.6251 22246.3690 93.2418 0.0000 0.0000 -175945.3800 0.0000 -175945.3800 -175945.3800 0.0000 16564.6139 -4790.8246 534946.2959 16564.6139 -4790.8246
ENERGY: 760 178.6187 663.6042 2831.7720 0.0000 -202288.1743 22361.2380 98.1821 0.0000 0.0000 -176154.7592 0.0000 -176154.7592 -176154.7592 0.0000 16558.6168 -4824.7592 534946.2959 16558.6168 -4824.7592
ENERGY: 780 161.4836 661.6597 2827.5972 0.0000 -202404.6301 22377.4357 96.3494 0.0000 0.0000 -176280.1045 0.0000 -176280.1045 -176280.1045 0.0000 16631.7426 -4780.1858 534946.2959 16631.7426 -4780.1858
ENERGY: 800 156.3462 655.5404 2838.9496 0.0000 -202759.3919 22544.8629 96.0917 0.0000 0.0000 -176467.6012 0.0000 -176467.6012 -176467.6012 0.0000 16762.6176 -4694.7610 534946.2959 16762.6176 -4694.7610
TCL: Setting parameter constraintScaling to 0.0390625
TCL: Minimizing for 100 steps
ETITLE: TS BOND ANGLE DIHED IMPRP ELECT VDW BOUNDARY MISC KINETIC TOTAL TEMP POTENTIAL TOTAL3 TEMPAVG PRESSURE GPRESSURE VOLUME PRESSAVG GPRESSAVG
ENERGY: 800 156.3462 655.5404 2838.9496 0.0000 -202759.3919 22544.8629 48.0459 0.0000 0.0000 -176515.6470 0.0000 -176515.6470 -176515.6470 0.0000 16805.2298 -27156.3242 534946.2959 16805.2298 -27156.3242
ENERGY: 820 243.5575 685.8465 2825.3047 0.0000 -202984.9656 22594.6120 51.0378 0.0000 0.0000 -176584.6073 0.0000 -176584.6073 -176584.6073 0.0000 16718.4950 -4741.4787 534946.2959 16718.4950 -4741.4787
ENERGY: 840 177.1879 666.8097 2826.8146 0.0000 -203258.0182 22718.9744 53.8754 0.0000 0.0000 -176814.3562 0.0000 -176814.3562 -176814.3562 0.0000 16757.2717 -4730.0248 534946.2959 16757.2717 -4730.0248
ENERGY: 860 212.7502 674.1850 2827.2466 0.0000 -203422.5356 22758.8300 53.0517 0.0000 0.0000 -176896.4721 0.0000 -176896.4721 -176896.4721 0.0000 16812.5042 -4691.0628 534946.2959 16812.5042 -4691.0628
ENERGY: 880 164.8973 669.5223 2832.2620 0.0000 -203712.5809 22901.5508 53.8711 0.0000 0.0000 -177090.4774 0.0000 -177090.4774 -177090.4774 0.0000 16974.1254 -4599.9280 534946.2959 16974.1254 -4599.9280
ENERGY: 900 184.8910 655.6979 2821.0357 0.0000 -204344.4906 23166.6028 57.6060 0.0000 0.0000 -177458.6572 0.0000 -177458.6572 -177458.6572 0.0000 17047.1427 -4575.3319 534946.2959 17047.1427 -4575.3319
TCL: Setting parameter constraintScaling to 0.01953125
TCL: Minimizing for 100 steps
ETITLE: TS BOND ANGLE DIHED IMPRP ELECT VDW BOUNDARY MISC KINETIC TOTAL TEMP POTENTIAL TOTAL3 TEMPAVG PRESSURE GPRESSURE VOLUME PRESSAVG GPRESSAVG
ENERGY: 900 184.8910 655.6979 2821.0357 0.0000 -204344.4906 23166.6028 28.8030 0.0000 0.0000 -177487.4602 0.0000 -177487.4602 -177487.4602 0.0000 17071.0630 -27267.3745 534946.2959 17071.0630 -27267.3745
ENERGY: 920 189.8420 656.5010 2817.9599 0.0000 -204532.4531 23226.6003 29.8207 0.0000 0.0000 -177611.7293 0.0000 -177611.7293 -177611.7293 0.0000 17065.7967 -4576.7890 534946.2959 17065.7967 -4576.7890
ENERGY: 940 163.3506 667.8742 2813.4640 0.0000 -204773.6837 23335.7324 30.9989 0.0000 0.0000 -177762.2635 0.0000 -177762.2635 -177762.2635 0.0000 17155.4275 -4533.7824 534946.2959 17155.4275 -4533.7824
ENERGY: 960 172.1722 660.8862 2813.6141 0.0000 -204880.1217 23374.9635 30.9944 0.0000 0.0000 -177827.4913 0.0000 -177827.4913 -177827.4913 0.0000 17163.6873 -4527.5919 534946.2959 17163.6873 -4527.5919
ENERGY: 980 170.9318 654.5101 2820.3964 0.0000 -205243.3541 23561.1836 31.5440 0.0000 0.0000 -178004.7882 0.0000 -178004.7882 -178004.7882 0.0000 17276.5940 -4453.7748 534946.2959 17276.5940 -4453.7748
ENERGY: 1000 159.1313 654.1196 2816.3054 0.0000 -205387.2161 23611.5938 32.0852 0.0000 0.0000 -178113.9808 0.0000 -178113.9808 -178113.9808 0.0000 17331.4042 -4436.4471 534946.2959 17331.4042 -4436.4471
TCL: Setting parameter constraintScaling to 0
TCL: Minimizing for 5000 steps
ETITLE: TS BOND ANGLE DIHED IMPRP ELECT VDW BOUNDARY MISC KINETIC TOTAL TEMP POTENTIAL TOTAL3 TEMPAVG PRESSURE GPRESSURE VOLUME PRESSAVG GPRESSAVG
ENERGY: 1000 159.1313 654.1196 2816.3054 0.0000 -205387.2161 23611.5938 0.0000 0.0000 0.0000 -178146.0660 0.0000 -178146.0660 -178146.0660 0.0000 17357.1323 -27228.4895 534946.2959 17357.1323 -27228.4895
ENERGY: 2000 183.4369 671.0141 2799.5280 0.0000 -214666.7698 27709.8593 0.0000 0.0000 0.0000 -183302.9315 0.0000 -183302.9315 -183302.9315 0.0000 19491.0974 -3311.5181 534946.2959 19491.0974 -3311.5181
ENERGY: 3000 167.7843 666.0682 2793.5358 0.0000 -217371.9587 28904.6423 0.0000 0.0000 0.0000 -184839.9282 0.0000 -184839.9282 -184839.9282 0.0000 20117.1374 -2944.8258 534946.2959 20117.1374 -2944.8258
ENERGY: 4000 165.8762 663.8609 2787.3576 0.0000 -218664.8865 29368.3737 0.0000 0.0000 0.0000 -185679.4181 0.0000 -185679.4181 -185679.4181 0.0000 20367.0558 -2825.0625 534946.2959 20367.0558 -2825.0625
ENERGY: 5000 174.9583 664.9439 2788.3977 0.0000 -219495.4880 29697.2095 0.0000 0.0000 0.0000 -186169.9785 0.0000 -186169.9785 -186169.9785 0.0000 20532.9831 -2746.1508 534946.2959 20532.9831 -2746.1508
ENERGY: 6000 165.9304 665.1022 2783.8346 0.0000 -219908.3070 29859.1245 0.0000 0.0000 0.0000 -186434.3154 0.0000 -186434.3154 -186434.3154 0.0000 20614.5048 -2709.1930 534946.2959 20614.5048 -2709.1930
