Info: SIMULATION PARAMETERS:
Info: TIMESTEP               1
Info: NUMBER OF STEPS        0
Info: STEPS PER CYCLE        10
Info: PERIODIC CELL BASIS 1  72.449 0 0
Info: PERIODIC CELL BASIS 2  0 93.247 0
Info: PERIODIC CELL BASIS 3  0 0 79.185
Info: PERIODIC CELL CENTER   -0.248 -0.156 -0.047
Info: WRAPPING WATERS AROUND PERIODIC BOUNDARIES ON OUTPUT.
Info: WRAPPING ALL CLUSTERS AROUND PERIODIC BOUNDARIES ON OUTPUT.
Info: FIRST LDB TIMESTEP     50
Info: LAST LDB TIMESTEP     -1
Info: HOM BACKGROUND SCALING 1
Info: PME BACKGROUND SCALING 1
Info: MIN ATOMS PER PATCH    40
Info: VELOCITY FILE          ../replicas/rep67/equilibration/eq1.vel
Info: CENTER OF MASS MOVING INITIALLY? NO
Info: DIELECTRIC             1
Info: EXCLUDE                SCALED ONE-FOUR
Info: 1-4 ELECTROSTATICS SCALED BY 0.833333
Info: MODIFIED 1-4 VDW PARAMETERS WILL BE USED
Info: DCD FILENAME           ../replicas/rep67/equilibration/eq2.dcd
Info: DCD FREQUENCY          5000
Info: DCD FIRST STEP         5000
Info: DCD FILE WILL CONTAIN UNIT CELL DATA
Info: XST FILENAME           ../replicas/rep67/equilibration/eq2.xst
Info: XST FREQUENCY          5000
Info: NO VELOCITY DCD OUTPUT
Info: NO FORCE DCD OUTPUT
Info: OUTPUT FILENAME        ../replicas/rep67/equilibration/eq2
Info: RESTART FILENAME       ../replicas/rep67/equilibration/eq2.restart
Info: RESTART FREQUENCY      5000
Info: BINARY RESTART FILES WILL BE USED
Info: SWITCHING ACTIVE
Info: SWITCHING ON           10
Info: SWITCHING OFF          12
Info: PAIRLIST DISTANCE      13.5
Info: PAIRLIST SHRINK RATE   0.01
Info: PAIRLIST GROW RATE     0.01
Info: PAIRLIST TRIGGER       0.3
Info: PAIRLISTS PER CYCLE    2
Info: PAIRLISTS ENABLED
Info: MARGIN                 0.48
Info: HYDROGEN GROUP CUTOFF  2.5
Info: PATCH DIMENSION        16.48
Info: ENERGY OUTPUT STEPS    500
Info: CROSSTERM ENERGY INCLUDED IN DIHEDRAL
Info: TIMING OUTPUT STEPS    5000
Info: PRESSURE OUTPUT STEPS  500
Info: HARMONIC CONSTRAINTS ACTIVE
Info: HARMONIC CONS EXP      2
Info: HARMONIC CONS SCALING  10
Info: LANGEVIN DYNAMICS ACTIVE
Info: LANGEVIN TEMPERATURE   300
Info: LANGEVIN USING BBK INTEGRATOR
Info: LANGEVIN DAMPING COEFFICIENT IS 5 INVERSE PS
Info: LANGEVIN DYNAMICS NOT APPLIED TO HYDROGENS
Info: BERENDSEN PRESSURE COUPLING ACTIVE
Info:     TARGET PRESSURE IS 1 BAR
Info:     COMPRESSIBILITY ESTIMATE IS 4.57e-05 BAR^(-1)
Info:     RELAXATION TIME IS 100 FS
Info:     APPLIED EVERY 2 STEPS
Info:     PRESSURE CONTROL IS GROUP-BASED
Info:       CELL FLUCTUATION IS ISOTROPIC
Info: PARTICLE MESH EWALD (PME) ACTIVE
Info: PME TOLERANCE               1e-06
Info: PME EWALD COEFFICIENT       0.257952
Info: PME INTERPOLATION ORDER     4
Info: PME GRID DIMENSIONS         80 96 80
Info: PME MAXIMUM GRID SPACING    1
Info: FULL ELECTROSTATIC EVALUATION FREQUENCY      2
Info: USING VERLET I (r-RESPA) MTS SCHEME.
Info: C1 SPLITTING OF LONG RANGE ELECTROSTATICS
Info: PLACING ATOMS IN PATCHES BY HYDROGEN GROUPS
Info: RIGID BONDS TO HYDROGEN : WATER
Info:         ERROR TOLERANCE : 1e-05
Info:          MAX ITERATIONS : 100
Info: RIGID WATER USING SETTLE ALGORITHM
Info: RANDOM NUMBER SEED     1503711350
Info: USE HYDROGEN BONDS?    NO
Info: Using AMBER format force field!
Info: AMBER PARM FILE        ../build/complex.top
Info: COORDINATE PDB         ../replicas/rep67/equilibration/eq1.coor
Info: Exclusions in PARM file will be ignored!
Info: SCNB (VDW SCALING)     2
Info: USING ARITHMETIC MEAN TO COMBINE L-J SIGMA PARAMETERS
Info: SUMMARY OF PARAMETERS:
Info: 71 BONDS
Info: 145 ANGLES
Info: 76 DIHEDRAL
Info: 0 IMPROPER
Info: 0 CROSSTERM
Info: 0 VDW
Info: 190 VDW_PAIRS
Info: 0 NBTHOLE_PAIRS
Info: STRUCTURE SUMMARY:
Info: 49394 ATOMS
Info: 49448 BONDS
Info: 8698 ANGLES
Info: 18780 DIHEDRALS
Info: 0 IMPROPERS
Info: 0 CROSSTERMS
Info: 0 EXCLUSIONS
Info: 2336 CONSTRAINTS
Info: 44667 RIGID BONDS
Info: 103515 DEGREES OF FREEDOM
Info: 17225 HYDROGEN GROUPS
Info: 4 ATOMS IN LARGEST HYDROGEN GROUP
Info: 17225 MIGRATION GROUPS
Info: 4 ATOMS IN LARGEST MIGRATION GROUP
Info: TOTAL MASS = 301478 amu
Info: TOTAL CHARGE = 1.00115e-05 e
Info: MASS DENSITY = 0.935846 g/cm^3
Info: ATOM DENSITY = 0.0923345 atoms/A^3
Info: ADDED 70656 IMPLICIT EXCLUSIONS
Info: NONBONDED TABLE R-SQUARED SPACING: 0.0625
Info: NONBONDED TABLE SIZE: 769 POINTS
Info: REMOVING COM VELOCITY -0.00121931 -0.00867204 0.00797221
TCL: Running for 5000 steps
ETITLE: TS BOND ANGLE DIHED IMPRP ELECT VDW BOUNDARY MISC KINETIC TOTAL TEMP POTENTIAL TOTAL3 TEMPAVG PRESSURE GPRESSURE VOLUME PRESSAVG GPRESSAVG
ENERGY: 0 381.5683 1225.5575 2913.4465 0.0000 -212863.8066 29725.7797 0.0000 0.0000 10051.3729 -168566.0818 97.7265 -178617.4546 -168556.4115 97.7265 -2262.4776 -2363.1887 534946.2959 -2262.4776 -2363.1887
ENERGY: 1000 1178.1230 1968.9632 3125.6810 0.0000 -193577.1263 26539.2932 797.7368 0.0000 24131.9668 -135835.3623 234.6280 -159967.3292 -135809.4839 219.0549 -41.6681 1.5221 523524.6642 -9.3948 -9.6955
ENERGY: 2000 1434.5799 2124.4455 3137.7838 0.0000 -184036.9354 23383.9167 781.3514 0.0000 27864.1561 -125310.7019 270.9150 -153174.8581 -125277.4677 264.4183 -39.7584 -2.3168 517850.5981 -19.5449 -19.5997
ENERGY: 3000 1559.1125 2183.3499 3114.4946 0.0000 -179202.1208 21855.8950 805.5569 0.0000 29490.3896 -120193.3222 286.7264 -149683.7118 -120156.4137 284.2038 -46.3671 1.6403 512852.8635 -20.3051 -20.6711
ENERGY: 4000 1540.4651 2266.1296 3144.7626 0.0000 -176878.7382 20840.6291 794.4182 0.0000 30201.4719 -118090.8617 293.6400 -148292.3336 -118046.7047 292.6902 -9.6011 -1.9649 509129.7596 -16.6118 -15.8537
ENERGY: 5000 1562.6006 2235.8679 3120.4047 0.0000 -176095.0324 20545.8398 801.2785 0.0000 30639.5614 -117189.4796 297.8994 -147829.0410 -117146.4143 296.9546 -38.5895 -11.2823 506192.2419 -11.6882 -11.8592
TCL: Setting parameter constraintScaling to 5.0
TCL: Running for 5000 steps
ETITLE: TS BOND ANGLE DIHED IMPRP ELECT VDW BOUNDARY MISC KINETIC TOTAL TEMP POTENTIAL TOTAL3 TEMPAVG PRESSURE GPRESSURE VOLUME PRESSAVG GPRESSAVG
ENERGY: 5000 1562.6006 2235.8679 3120.4047 0.0000 -176095.0324 20545.8398 400.6393 0.0000 30637.5040 -117592.1762 297.8794 -148229.6802 -117549.0849 297.8794 5.3258 32.5044 506192.2419 5.3258 32.5044
ENERGY: 6000 1593.6505 2256.5275 3135.7325 0.0000 -176209.3412 20485.8386 638.7322 0.0000 30709.6725 -117389.1874 298.5811 -148098.8599 -117354.6680 297.7050 -22.1086 -15.5670 503941.1342 -14.1365 -14.2610
ENERGY: 7000 1614.6237 2352.7874 3160.9672 0.0000 -175896.8319 20367.4195 650.1593 0.0000 30616.7969 -117134.0777 297.6781 -147750.8746 -117092.4288 298.2011 -38.7208 -0.0396 503839.1356 -3.3012 -2.7001
ENERGY: 8000 1602.8831 2369.1425 3153.9526 0.0000 -175585.8761 20008.4428 643.9966 0.0000 30723.8876 -117083.5710 298.7193 -147807.4586 -117031.3830 298.9139 -12.9932 6.2063 502551.2537 1.6214 1.3486
ENERGY: 9000 1587.5376 2343.3283 3146.0000 0.0000 -176213.3046 20594.6662 616.7286 0.0000 30720.8309 -117204.2131 298.6896 -147925.0440 -117156.5425 299.7513 -74.5451 24.2041 502169.3853 -1.5932 -1.2957
ENERGY: 10000 1603.2969 2354.9850 3170.3051 0.0000 -175747.6178 20176.5602 646.0714 0.0000 30664.2278 -117132.1714 298.1392 -147796.3992 -117095.8878 298.4082 -28.6310 -36.5100 502211.3984 -15.9797 -15.7152
TCL: Setting parameter constraintScaling to 2.5
TCL: Running for 5000 steps
ETITLE: TS BOND ANGLE DIHED IMPRP ELECT VDW BOUNDARY MISC KINETIC TOTAL TEMP POTENTIAL TOTAL3 TEMPAVG PRESSURE GPRESSURE VOLUME PRESSAVG GPRESSAVG
ENERGY: 10000 1603.2969 2354.9850 3170.3051 0.0000 -175747.6178 20176.5602 323.0357 0.0000 30662.1868 -117457.2481 298.1194 -148119.4349 -117410.4203 298.1194 -67.3761 -84.4144 502211.3984 -67.3761 -84.4144
ENERGY: 11000 1641.3037 2282.7768 3199.2343 0.0000 -175257.2846 19919.5421 488.8249 0.0000 30466.4182 -117259.1846 296.2160 -147725.6028 -117219.0543 298.5348 -24.6522 12.7828 499608.5646 -9.6591 -10.2261
ENERGY: 12000 1625.0309 2280.8800 3151.7109 0.0000 -175774.7187 20239.8412 489.2648 0.0000 30829.2320 -117158.7588 299.7435 -147987.9909 -117107.9048 299.2911 -29.4051 -20.6709 500989.1633 9.5111 9.6842
ENERGY: 13000 1643.6421 2335.3095 3187.6049 0.0000 -175444.0652 20145.5346 509.8452 0.0000 30640.1666 -116981.9624 297.9053 -147622.1289 -116937.5615 300.5300 -86.7166 -63.9096 499771.7029 7.8408 7.1724
ENERGY: 14000 1563.9079 2305.5856 3216.7420 0.0000 -174949.3048 19870.3377 509.7906 0.0000 31004.2844 -116478.6566 301.4455 -147482.9411 -116432.1225 300.4528 -156.8505 -24.9814 501082.8343 -1.7267 -1.7039
ENERGY: 15000 1616.7617 2307.6063 3159.5211 0.0000 -175416.9452 20051.1337 510.6805 0.0000 30808.3698 -116962.8722 299.5407 -147771.2420 -116922.2135 300.3128 29.7435 0.8303 500585.5603 -1.8628 -1.9324
TCL: Setting parameter constraintScaling to 1.25
TCL: Running for 5000 steps
ETITLE: TS BOND ANGLE DIHED IMPRP ELECT VDW BOUNDARY MISC KINETIC TOTAL TEMP POTENTIAL TOTAL3 TEMPAVG PRESSURE GPRESSURE VOLUME PRESSAVG GPRESSAVG
ENERGY: 15000 1616.7617 2307.6063 3159.5211 0.0000 -175416.9452 20051.1337 255.3403 0.0000 30806.3342 -117220.2480 299.5209 -148026.5822 -117176.7127 299.5209 0.1002 -26.6340 500585.5603 0.1002 -26.6340
ENERGY: 16000 1588.6467 2286.3277 3201.4013 0.0000 -175252.0989 19845.4214 394.4560 0.0000 30978.4653 -116957.3804 301.1945 -147935.8458 -116910.9974 300.9892 -59.1811 33.0780 500307.2527 -6.4990 -6.4841
ENERGY: 17000 1636.9220 2461.6807 3175.0307 0.0000 -175597.6437 20016.7866 384.0511 0.0000 30863.6298 -117059.5428 300.0780 -147923.1726 -117011.9666 299.9281 -55.3591 -22.5164 498761.1800 -6.4280 -6.2930
ENERGY: 18000 1691.4337 2398.0763 3185.0208 0.0000 -175450.5900 19843.7148 399.3190 0.0000 30746.1707 -117186.8546 298.9359 -147933.0253 -117148.3582 299.4164 -0.5353 41.8246 499178.0288 -18.4617 -18.8269
ENERGY: 19000 1599.7014 2416.2859 3187.9387 0.0000 -175742.9075 20038.8130 404.7313 0.0000 30851.0528 -117244.3844 299.9557 -148095.4371 -117203.5212 299.8071 95.4315 53.5165 499529.4320 -8.2527 -7.7587
ENERGY: 20000 1655.3081 2373.4331 3214.2177 0.0000 -176416.3938 20536.8616 405.4585 0.0000 30641.0872 -117590.0275 297.9142 -148231.1148 -117545.2842 298.2411 -60.7316 -6.5306 499292.6489 -4.4721 -4.5781
TCL: Setting parameter constraintScaling to 0.625
TCL: Running for 5000 steps
ETITLE: TS BOND ANGLE DIHED IMPRP ELECT VDW BOUNDARY MISC KINETIC TOTAL TEMP POTENTIAL TOTAL3 TEMPAVG PRESSURE GPRESSURE VOLUME PRESSAVG GPRESSAVG
ENERGY: 20000 1655.3081 2373.4331 3214.2177 0.0000 -176416.3938 20536.8616 202.7293 0.0000 30639.0414 -117794.8026 297.8944 -148433.8441 -117753.6357 297.8944 -52.5588 6.3579 499292.6489 -52.5588 6.3579
ENERGY: 21000 1636.7550 2404.8217 3176.5308 0.0000 -175501.3464 19984.7339 307.7462 0.0000 30869.6045 -117121.1543 300.1361 -147990.7588 -117075.1859 299.5290 33.9393 79.0308 500126.7779 -4.5779 -4.3034
ENERGY: 22000 1679.7474 2436.4410 3167.1224 0.0000 -175789.5904 20083.0443 329.7703 0.0000 30792.7980 -117300.6671 299.3893 -148093.4651 -117259.1760 299.0845 -49.2089 -16.0260 497659.3427 -13.7778 -12.9239
ENERGY: 23000 1596.7174 2363.0193 3220.0115 0.0000 -175563.5533 20063.3400 316.1197 0.0000 30847.5252 -117156.8203 299.9214 -148004.3455 -117114.1761 299.1837 -95.9351 -51.2896 498572.1347 -0.9353 -1.1889
ENERGY: 24000 1597.3440 2358.5933 3215.3972 0.0000 -175946.5002 20074.1827 317.0178 0.0000 30742.6015 -117641.3637 298.9012 -148383.9652 -117592.7981 299.2973 -28.7708 -1.4770 498685.8584 0.2217 0.4976
ENERGY: 25000 1629.0102 2369.7814 3198.3336 0.0000 -175940.2326 20115.8495 309.2691 0.0000 30938.7682 -117379.2208 300.8085 -148317.9890 -117333.3619 299.3729 -88.0902 -62.1300 498049.1057 1.2728 0.7689
TCL: Setting parameter constraintScaling to 0.3125
TCL: Running for 5000 steps
ETITLE: TS BOND ANGLE DIHED IMPRP ELECT VDW BOUNDARY MISC KINETIC TOTAL TEMP POTENTIAL TOTAL3 TEMPAVG PRESSURE GPRESSURE VOLUME PRESSAVG GPRESSAVG
ENERGY: 25000 1629.0102 2369.7814 3198.3336 0.0000 -175940.2326 20115.8495 154.6346 0.0000 30936.6886 -117535.9349 300.7883 -148472.6235 -117489.4537 300.7883 -88.0534 -60.7419 498049.1057 -88.0534 -60.7419
ENERGY: 26000 1642.0890 2468.9208 3212.1732 0.0000 -175933.7682 20039.4978 242.2951 0.0000 30755.7197 -117573.0727 299.0288 -148328.7924 -117531.2161 299.1905 -48.4986 -19.0807 497387.3844 -14.0700 -13.6922
ENERGY: 27000 1638.7771 2396.0590 3205.0962 0.0000 -176255.4576 20269.3304 250.3132 0.0000 30858.7417 -117637.1400 300.0304 -148495.8817 -117580.6099 299.3629 -92.1436 -54.9470 497362.5371 -1.2698 -1.8305
ENERGY: 28000 1656.0889 2409.4688 3205.8924 0.0000 -175628.0818 20022.1499 233.3567 0.0000 30831.4921 -117269.6332 299.7655 -148101.1252 -117233.8403 300.0424 -4.1038 36.3951 497413.7124 4.4602 4.2947
ENERGY: 29000 1615.6850 2360.4319 3204.7235 0.0000 -175768.0030 19965.3487 253.2189 0.0000 30738.1185 -117630.4764 298.8577 -148368.5950 -117593.0771 298.8800 -13.7481 26.2744 496750.8867 -3.6001 -3.3427
ENERGY: 30000 1663.0931 2387.8105 3226.9360 0.0000 -175989.1493 20246.8259 248.2532 0.0000 30934.2258 -117282.0048 300.7643 -148216.2306 -117236.3348 300.0259 -81.9517 -52.5005 497379.0277 8.9282 9.1311
TCL: Setting parameter constraintScaling to 0.15625
TCL: Running for 5000 steps
ETITLE: TS BOND ANGLE DIHED IMPRP ELECT VDW BOUNDARY MISC KINETIC TOTAL TEMP POTENTIAL TOTAL3 TEMPAVG PRESSURE GPRESSURE VOLUME PRESSAVG GPRESSAVG
ENERGY: 30000 1663.0931 2387.8105 3226.9360 0.0000 -175989.1493 20246.8259 124.1266 0.0000 30932.1614 -117408.1958 300.7443 -148340.3572 -117368.0573 300.7443 -104.7663 -73.4890 497379.0277 -104.7663 -73.4890
ENERGY: 31000 1611.0357 2504.8513 3185.5501 0.0000 -175733.8094 20018.9868 190.2417 0.0000 30702.2889 -117520.8550 298.5093 -148223.1439 -117484.0660 300.0471 -11.6009 62.2310 497224.2455 -5.7097 -5.5996
ENERGY: 32000 1622.0231 2418.4055 3182.3312 0.0000 -175630.6147 20047.0695 190.7814 0.0000 30802.8861 -117367.1180 299.4874 -148170.0041 -117331.4183 300.1811 -37.7487 -30.7412 498400.1365 10.4896 10.5122
ENERGY: 33000 1619.4431 2444.5869 3224.6416 0.0000 -175827.8873 20026.4724 206.6559 0.0000 30938.9216 -117367.1657 300.8100 -148306.0874 -117321.7965 300.3520 -55.1512 -64.7241 498436.0791 13.1562 12.7351
ENERGY: 34000 1615.1214 2408.6147 3219.1711 0.0000 -176323.5537 20186.7462 220.2510 0.0000 30759.2051 -117914.4442 299.0627 -148673.6493 -117874.0374 299.1291 -73.1434 -2.0351 496982.9287 -3.1693 -3.2139
ENERGY: 35000 1659.3511 2480.1890 3185.9048 0.0000 -175567.2269 19968.3056 206.5578 0.0000 30784.4569 -117282.4618 299.3082 -148066.9186 -117238.2406 300.4882 -34.3175 -63.3415 497891.2619 -2.8002 -2.4368
TCL: Setting parameter constraintScaling to 0.078125
TCL: Running for 5000 steps
ETITLE: TS BOND ANGLE DIHED IMPRP ELECT VDW BOUNDARY MISC KINETIC TOTAL TEMP POTENTIAL TOTAL3 TEMPAVG PRESSURE GPRESSURE VOLUME PRESSAVG GPRESSAVG
ENERGY: 35000 1659.3511 2480.1890 3185.9048 0.0000 -175567.2269 19968.3056 103.2789 0.0000 30782.4057 -117387.7918 299.2882 -148170.1975 -117347.6236 299.2882 -29.6139 -60.0109 497891.2619 -29.6139 -60.0109
ENERGY: 36000 1664.0807 2425.1410 3228.2426 0.0000 -176234.7293 20262.2057 155.4801 0.0000 30906.1329 -117593.4462 300.4912 -148499.5791 -117539.1595 299.6791 77.4376 42.9327 498001.4716 0.9619 0.7782
ENERGY: 37000 1647.0006 2445.8895 3202.5373 0.0000 -176047.8812 20189.9003 156.0406 0.0000 30993.6573 -117412.8556 301.3422 -148406.5129 -117370.2315 300.2252 89.2840 68.8690 497968.8961 -0.4690 -0.8759
ENERGY: 38000 1616.8901 2502.5051 3220.0512 0.0000 -175553.4079 19970.3011 161.0536 0.0000 30743.1614 -117339.4455 298.9067 -148082.6068 -117295.7935 300.3040 -102.8985 12.4670 497783.4662 -10.5393 -10.0197
ENERGY: 39000 1650.2202 2403.9247 3222.2041 0.0000 -176019.6329 19981.2876 161.4987 0.0000 31082.1543 -117518.3434 302.2026 -148600.4977 -117475.8584 300.1894 -72.8042 16.6744 495598.6360 -16.6018 -16.1941
ENERGY: 40000 1638.2070 2334.4314 3203.7455 0.0000 -175815.8918 20032.2504 169.4356 0.0000 30859.6648 -117578.1572 300.0394 -148437.8219 -117542.3755 299.2720 -42.4284 -0.7141 498210.3856 3.1986 3.5863
TCL: Setting parameter constraintScaling to 0.0390625
TCL: Running for 5000 steps
ETITLE: TS BOND ANGLE DIHED IMPRP ELECT VDW BOUNDARY MISC KINETIC TOTAL TEMP POTENTIAL TOTAL3 TEMPAVG PRESSURE GPRESSURE VOLUME PRESSAVG GPRESSAVG
ENERGY: 40000 1638.2070 2334.4314 3203.7455 0.0000 -175815.8918 20032.2504 84.7178 0.0000 30857.6450 -117664.8948 300.0198 -148522.5397 -117623.8873 300.0198 -40.4828 -9.7941 498210.3856 -40.4828 -9.7941
ENERGY: 41000 1632.7520 2435.0939 3211.9254 0.0000 -176139.4788 20179.5810 113.3177 0.0000 30784.9576 -117781.8511 299.3131 -148566.8088 -117743.3132 299.0181 -70.7652 43.2180 496259.3341 -0.6094 -0.0261
ENERGY: 42000 1629.6846 2456.9843 3212.6184 0.0000 -175818.0762 19940.3394 118.8517 0.0000 30747.8407 -117711.7572 298.9522 -148459.5979 -117670.3773 299.9431 -154.9513 -29.1212 495536.6269 -9.3471 -9.4279
ENERGY: 43000 1626.5404 2436.9112 3239.1299 0.0000 -175894.1975 20000.5463 107.5174 0.0000 30982.1854 -117501.3668 301.2306 -148483.5523 -117453.6232 300.0804 -104.6931 47.6474 494611.3946 -12.9393 -11.9832
ENERGY: 44000 1642.2409 2432.5288 3191.0635 0.0000 -175605.3457 20090.3212 117.3959 0.0000 30790.0075 -117341.7880 299.3622 -148131.7954 -117287.7929 301.1881 24.4171 65.1118 497455.6046 18.2315 18.2588
ENERGY: 45000 1616.6495 2405.5427 3189.8569 0.0000 -175494.9684 19836.5289 125.5622 0.0000 30963.4323 -117357.3959 301.0483 -148320.8282 -117312.9502 300.2630 -56.7587 -83.7102 496433.0686 -13.8532 -14.0243
TCL: Setting parameter constraintScaling to 0.01953125
TCL: Running for 5000 steps
ETITLE: TS BOND ANGLE DIHED IMPRP ELECT VDW BOUNDARY MISC KINETIC TOTAL TEMP POTENTIAL TOTAL3 TEMPAVG PRESSURE GPRESSURE VOLUME PRESSAVG GPRESSAVG
ENERGY: 45000 1616.6495 2405.5427 3189.8569 0.0000 -175494.9684 19836.5289 62.7811 0.0000 30961.3601 -117422.2492 301.0282 -148383.6093 -117380.6877 301.0282 -62.7785 -93.3154 496433.0686 -62.7785 -93.3154
ENERGY: 46000 1582.4217 2305.0640 3206.3105 0.0000 -175858.1689 20076.2893 74.9629 0.0000 30744.6987 -117868.4220 298.9216 -148613.1206 -117829.5564 298.7444 33.2263 42.9597 496732.0965 5.4784 5.3039
ENERGY: 47000 1605.1680 2387.5579 3190.4715 0.0000 -175971.9510 20010.1513 78.1958 0.0000 30954.1748 -117746.2317 300.9583 -148700.4065 -117702.4553 298.8144 -118.3056 -46.3842 496824.6698 3.2134 3.5787
ENERGY: 48000 1615.4424 2476.8881 3190.6396 0.0000 -175591.7100 20020.2164 78.4594 0.0000 30570.6348 -117639.4293 297.2293 -148210.0642 -117584.6418 299.6546 -24.8676 28.6158 497324.5227 8.0215 8.1697
ENERGY: 49000 1625.6924 2418.2766 3209.8074 0.0000 -175688.4413 19971.5547 84.5285 0.0000 30672.5921 -117705.9897 298.2206 -148378.5818 -117669.3301 299.6292 -116.9562 -100.4125 497601.7808 -4.6337 -4.8506
ENERGY: 50000 1630.2994 2411.0709 3244.2304 0.0000 -175261.4881 19843.0265 87.4935 0.0000 30799.5161 -117245.8513 299.4546 -148045.3674 -117203.6448 300.0477 -4.3193 -29.7397 498600.5078 16.6010 16.7515
TCL: Setting parameter constraintScaling to 0
TCL: Running for 5000 steps
ETITLE: TS BOND ANGLE DIHED IMPRP ELECT VDW BOUNDARY MISC KINETIC TOTAL TEMP POTENTIAL TOTAL3 TEMPAVG PRESSURE GPRESSURE VOLUME PRESSAVG GPRESSAVG
ENERGY: 50000 1630.2994 2411.0709 3244.2304 0.0000 -175261.4881 19843.0265 0.0000 0.0000 30797.4770 -117335.3839 299.4348 -148132.8609 -117292.8843 299.4348 -18.2698 -36.7388 498600.5078 -18.2698 -36.7388
ENERGY: 51000 1659.5704 2410.7673 3251.3034 0.0000 -176383.8643 20191.6677 0.0000 0.0000 30876.5502 -117994.0054 300.2036 -148870.5555 -117943.2584 300.3109 -205.6238 -101.8022 495831.6317 -18.6896 -18.6550
ENERGY: 52000 1543.2569 2383.1002 3239.4227 0.0000 -176153.8234 19938.4181 0.0000 0.0000 30913.0847 -118136.5407 300.5588 -149049.6254 -118088.2011 298.8281 -34.0989 -17.1318 495833.7010 -7.0469 -6.8399
ENERGY: 53000 1617.1762 2416.5698 3191.6014 0.0000 -175514.4894 19902.5797 0.0000 0.0000 30899.1164 -117487.4460 300.4230 -148386.5623 -117441.8336 300.5568 1.1106 21.0339 496518.6210 -4.8642 -4.2993
ENERGY: 54000 1621.6313 2376.4543 3191.1676 0.0000 -175903.5313 20012.1634 0.0000 0.0000 30907.6611 -117794.4537 300.5061 -148702.1148 -117749.2043 299.9835 3.6171 47.2120 496738.1737 -1.3982 -1.5485
ENERGY: 55000 1644.7327 2380.3921 3237.7481 0.0000 -175427.6382 19915.2818 0.0000 0.0000 30838.0159 -117411.4676 299.8289 -148249.4835 -117364.6864 300.1602 62.7853 62.5315 497040.0376 -0.9879 -1.0110
