Info: SIMULATION PARAMETERS:
Info: TIMESTEP               2
Info: NUMBER OF STEPS        0
Info: STEPS PER CYCLE        10
Info: PERIODIC CELL BASIS 1  72.449 0 0
Info: PERIODIC CELL BASIS 2  0 93.247 0
Info: PERIODIC CELL BASIS 3  0 0 79.185
Info: PERIODIC CELL CENTER   -0.248 -0.156 -0.047
Info: WRAPPING WATERS AROUND PERIODIC BOUNDARIES ON OUTPUT.
Info: WRAPPING ALL CLUSTERS AROUND PERIODIC BOUNDARIES ON OUTPUT.
Info: FIRST LDB TIMESTEP     50
Info: LAST LDB TIMESTEP     -1
Info: HOM BACKGROUND SCALING 1
Info: PME BACKGROUND SCALING 1
Info: MIN ATOMS PER PATCH    40
Info: INITIAL TEMPERATURE    0
Info: CENTER OF MASS MOVING INITIALLY? NO
Info: DIELECTRIC             1
Info: EXCLUDE                SCALED ONE-FOUR
Info: 1-4 ELECTROSTATICS SCALED BY 0.833333
Info: MODIFIED 1-4 VDW PARAMETERS WILL BE USED
Info: NO DCD TRAJECTORY OUTPUT
Info: NO EXTENDED SYSTEM TRAJECTORY OUTPUT
Info: NO VELOCITY DCD OUTPUT
Info: NO FORCE DCD OUTPUT
Info: OUTPUT FILENAME        ../replicas/rep4/equilibration/eq0
Info: NO RESTART FILE
Info: SWITCHING ACTIVE
Info: SWITCHING ON           10
Info: SWITCHING OFF          12
Info: PAIRLIST DISTANCE      13.5
Info: PAIRLIST SHRINK RATE   0.01
Info: PAIRLIST GROW RATE     0.01
Info: PAIRLIST TRIGGER       0.3
Info: PAIRLISTS PER CYCLE    2
Info: PAIRLISTS ENABLED
Info: MARGIN                 0
Info: HYDROGEN GROUP CUTOFF  2.5
Info: PATCH DIMENSION        16
Info: ENERGY OUTPUT STEPS    500
Info: CROSSTERM ENERGY INCLUDED IN DIHEDRAL
Info: TIMING OUTPUT STEPS    5000
Info: PRESSURE OUTPUT STEPS  500
Info: HARMONIC CONSTRAINTS ACTIVE
Info: HARMONIC CONS EXP      2
Info: HARMONIC CONS SCALING  10
Info: CONJUGATE GRADIENT MINIMIZATION ACTIVE
Info: LINE MINIMIZATION GOAL = 0.001
Info: BABY STEP SIZE = 0.01
Info: TINY STEP SIZE = 1e-06
Info: PARTICLE MESH EWALD (PME) ACTIVE
Info: PME TOLERANCE               1e-06
Info: PME EWALD COEFFICIENT       0.257952
Info: PME INTERPOLATION ORDER     4
Info: PME GRID DIMENSIONS         80 96 80
Info: PME MAXIMUM GRID SPACING    1
Info: FULL ELECTROSTATIC EVALUATION FREQUENCY      2
Info: USING VERLET I (r-RESPA) MTS SCHEME.
Info: C1 SPLITTING OF LONG RANGE ELECTROSTATICS
Info: PLACING ATOMS IN PATCHES BY HYDROGEN GROUPS
Info: RIGID BONDS TO HYDROGEN : ALL
Info:         ERROR TOLERANCE : 1e-05
Info:          MAX ITERATIONS : 100
Info: RIGID WATER USING SETTLE ALGORITHM
Info: RANDOM NUMBER SEED     1503275128
Info: USE HYDROGEN BONDS?    NO
Info: Using AMBER format force field!
Info: AMBER PARM FILE        ../build/complex.top
Info: COORDINATE PDB         ../build/complex.pdb
Info: Exclusions in PARM file will be ignored!
Info: SCNB (VDW SCALING)     2
Info: USING ARITHMETIC MEAN TO COMBINE L-J SIGMA PARAMETERS
Info: SUMMARY OF PARAMETERS:
Info: 71 BONDS
Info: 145 ANGLES
Info: 76 DIHEDRAL
Info: 0 IMPROPER
Info: 0 CROSSTERM
Info: 0 VDW
Info: 190 VDW_PAIRS
Info: 0 NBTHOLE_PAIRS
Info: STRUCTURE SUMMARY:
Info: 49394 ATOMS
Info: 49448 BONDS
Info: 8698 ANGLES
Info: 18780 DIHEDRALS
Info: 0 IMPROPERS
Info: 0 CROSSTERMS
Info: 0 EXCLUSIONS
Info: 2336 CONSTRAINTS
Info: 47058 RIGID BONDS
Info: 101124 DEGREES OF FREEDOM
Info: 17225 HYDROGEN GROUPS
Info: 4 ATOMS IN LARGEST HYDROGEN GROUP
Info: 17225 MIGRATION GROUPS
Info: 4 ATOMS IN LARGEST MIGRATION GROUP
Info: TOTAL MASS = 301478 amu
Info: TOTAL CHARGE = 1.00115e-05 e
Info: MASS DENSITY = 0.935846 g/cm^3
Info: ATOM DENSITY = 0.0923345 atoms/A^3
Info: ADDED 70656 IMPLICIT EXCLUSIONS
Info: NONBONDED TABLE R-SQUARED SPACING: 0.0625
Info: NONBONDED TABLE SIZE: 769 POINTS
Info: REMOVING COM VELOCITY 0 0 0
TCL: Minimizing for 100 steps
ETITLE: TS BOND ANGLE DIHED IMPRP ELECT VDW BOUNDARY MISC KINETIC TOTAL TEMP POTENTIAL TOTAL3 TEMPAVG PRESSURE GPRESSURE VOLUME PRESSAVG GPRESSAVG
ENERGY: 0 155.4176 1012.2698 2855.7272 0.0000 -154496.7911 207729.2052 0.0468 0.0000 0.0000 57255.8755 0.0000 57255.8755 57255.8755 0.0000 116350.2532 86546.1670 534946.2959 116350.2532 86546.1670
ENERGY: 20 304.7543 935.7911 2893.4663 0.0000 -158672.9400 17936.6597 143.9454 0.0000 0.0000 -136458.3232 0.0000 -136458.3232 -136458.3232 0.0000 16523.9390 -239.4554 534946.2959 16523.9390 -239.4554
ENERGY: 40 198.7446 799.5727 2896.9273 0.0000 -162811.4542 16417.9534 221.3030 0.0000 0.0000 -142276.9532 0.0000 -142276.9532 -142276.9532 0.0000 15011.2700 -2135.4702 534946.2959 15011.2700 -2135.4702
ENERGY: 60 130.5282 715.3440 2898.2166 0.0000 -167496.1588 15446.7537 315.2796 0.0000 0.0000 -147990.0367 0.0000 -147990.0367 -147990.0367 0.0000 13793.8833 -3799.3992 534946.2959 13793.8833 -3799.3992
ENERGY: 80 431.2730 765.6309 2904.3785 0.0000 -169937.5252 15121.1529 372.0121 0.0000 0.0000 -150343.0777 0.0000 -150343.0777 -150343.0777 0.0000 13270.3317 -4577.2438 534946.2959 13270.3317 -4577.2438
ENERGY: 100 129.7151 708.0654 2904.2780 0.0000 -171050.0709 15018.6527 384.2001 0.0000 0.0000 -151905.1596 0.0000 -151905.1596 -151905.1596 0.0000 13092.9119 -4843.6333 534946.2959 13092.9119 -4843.6333
TCL: Setting parameter constraintScaling to 5.0
TCL: Minimizing for 100 steps
ETITLE: TS BOND ANGLE DIHED IMPRP ELECT VDW BOUNDARY MISC KINETIC TOTAL TEMP POTENTIAL TOTAL3 TEMPAVG PRESSURE GPRESSURE VOLUME PRESSAVG GPRESSAVG
ENERGY: 100 129.7151 708.0654 2904.2780 0.0000 -171050.0709 15018.6527 192.1000 0.0000 0.0000 -152097.2596 0.0000 -152097.2596 -152097.2596 0.0000 13703.5072 -22944.4564 534946.2959 13703.5072 -22944.4564
ENERGY: 120 118.6819 680.2877 2909.9066 0.0000 -172396.3208 14830.1201 259.9551 0.0000 0.0000 -153597.3695 0.0000 -153597.3695 -153597.3695 0.0000 13320.9463 -4756.3090 534946.2959 13320.9463 -4756.3090
ENERGY: 140 109.1489 671.1467 2912.0863 0.0000 -174830.2883 14716.1437 337.7314 0.0000 0.0000 -156084.0313 0.0000 -156084.0313 -156084.0313 0.0000 12908.9552 -5423.1529 534946.2959 12908.9552 -5423.1529
ENERGY: 160 125.8578 667.1492 2914.1927 0.0000 -175966.9797 14735.1315 362.9173 0.0000 0.0000 -157161.7312 0.0000 -157161.7312 -157161.7312 0.0000 12806.9023 -5642.4353 534946.2959 12806.9023 -5642.4353
ENERGY: 180 303.5193 659.6761 2917.2963 0.0000 -177408.6389 14815.0095 395.3813 0.0000 0.0000 -158317.7563 0.0000 -158317.7563 -158317.7563 0.0000 12699.3198 -5899.4448 534946.2959 12699.3198 -5899.4448
ENERGY: 200 109.2081 628.4766 2923.3594 0.0000 -179544.0384 15071.1880 441.8883 0.0000 0.0000 -160369.9180 0.0000 -160369.9180 -160369.9180 0.0000 12659.9890 -6160.0778 534946.2959 12659.9890 -6160.0778
TCL: Setting parameter constraintScaling to 2.5
TCL: Minimizing for 100 steps
ETITLE: TS BOND ANGLE DIHED IMPRP ELECT VDW BOUNDARY MISC KINETIC TOTAL TEMP POTENTIAL TOTAL3 TEMPAVG PRESSURE GPRESSURE VOLUME PRESSAVG GPRESSAVG
ENERGY: 200 109.2081 628.4766 2923.3594 0.0000 -179544.0384 15071.1880 220.9441 0.0000 0.0000 -160590.8621 0.0000 -160590.8621 -160590.8621 0.0000 13208.4170 -25279.2359 534946.2959 13208.4170 -25279.2359
ENERGY: 220 169.2661 639.8164 2924.9628 0.0000 -180454.2041 15113.9795 291.3390 0.0000 0.0000 -161314.8403 0.0000 -161314.8403 -161314.8403 0.0000 13002.2583 -5922.9297 534946.2959 13002.2583 -5922.9297
ENERGY: 240 251.8032 643.1675 2921.4038 0.0000 -181893.7678 15358.8482 339.5289 0.0000 0.0000 -162379.0161 0.0000 -162379.0161 -162379.0161 0.0000 12964.0792 -6115.6219 534946.2959 12964.0792 -6115.6219
ENERGY: 260 174.3548 639.0373 2923.9322 0.0000 -184178.5517 15907.0335 437.3879 0.0000 0.0000 -164096.8060 0.0000 -164096.8060 -164096.8060 0.0000 13008.9185 -6314.3560 534946.2959 13008.9185 -6314.3560
ENERGY: 280 149.1785 649.0055 2918.1902 0.0000 -184713.2603 16069.0312 427.5251 0.0000 0.0000 -164500.3298 0.0000 -164500.3298 -164500.3298 0.0000 13128.2452 -6268.7518 534946.2959 13128.2452 -6268.7518
ENERGY: 300 233.4303 694.2897 2927.8223 0.0000 -186445.8832 16634.3565 426.2496 0.0000 0.0000 -165529.7348 0.0000 -165529.7348 -165529.7348 0.0000 13384.3617 -6209.3058 534946.2959 13384.3617 -6209.3058
TCL: Setting parameter constraintScaling to 1.25
TCL: Minimizing for 100 steps
ETITLE: TS BOND ANGLE DIHED IMPRP ELECT VDW BOUNDARY MISC KINETIC TOTAL TEMP POTENTIAL TOTAL3 TEMPAVG PRESSURE GPRESSURE VOLUME PRESSAVG GPRESSAVG
ENERGY: 300 233.4303 694.2897 2927.8223 0.0000 -186445.8832 16634.3565 213.1248 0.0000 0.0000 -165742.8596 0.0000 -165742.8596 -165742.8596 0.0000 13794.9746 -26296.7420 534946.2959 13794.9746 -26296.7420
ENERGY: 320 167.0065 649.4866 2910.7917 0.0000 -186883.2013 16723.7236 245.5434 0.0000 0.0000 -166186.6494 0.0000 -166186.6494 -166186.6494 0.0000 13784.0286 -5851.4220 534946.2959 13784.0286 -5851.4220
ENERGY: 340 215.0432 688.4393 2917.8142 0.0000 -188481.5380 17161.4723 356.6781 0.0000 0.0000 -167142.0909 0.0000 -167142.0909 -167142.0909 0.0000 13726.9069 -6069.3941 534946.2959 13726.9069 -6069.3941
ENERGY: 360 183.2043 670.6061 2903.7264 0.0000 -189040.8910 17384.5081 337.7215 0.0000 0.0000 -167561.1247 0.0000 -167561.1247 -167561.1247 0.0000 13914.8427 -5957.6816 534946.2959 13914.8427 -5957.6816
ENERGY: 380 197.3414 655.4671 2910.5424 0.0000 -190288.6234 17839.1588 352.3955 0.0000 0.0000 -168333.7182 0.0000 -168333.7182 -168333.7182 0.0000 14104.0658 -5913.3515 534946.2959 14104.0658 -5913.3515
ENERGY: 400 193.0718 668.9282 2900.0611 0.0000 -192322.9520 18718.9609 399.2181 0.0000 0.0000 -169442.7119 0.0000 -169442.7119 -169442.7119 0.0000 14497.9736 -5766.5911 534946.2959 14497.9736 -5766.5911
TCL: Setting parameter constraintScaling to 0.625
TCL: Minimizing for 100 steps
ETITLE: TS BOND ANGLE DIHED IMPRP ELECT VDW BOUNDARY MISC KINETIC TOTAL TEMP POTENTIAL TOTAL3 TEMPAVG PRESSURE GPRESSURE VOLUME PRESSAVG GPRESSAVG
ENERGY: 400 193.0718 668.9282 2900.0611 0.0000 -192322.9520 18718.9609 199.6091 0.0000 0.0000 -169642.3210 0.0000 -169642.3210 -169642.3210 0.0000 14799.9420 -26684.8178 534946.2959 14799.9420 -26684.8178
ENERGY: 420 135.0693 616.2506 2891.5938 0.0000 -192503.7407 18740.6086 212.4140 0.0000 0.0000 -169907.8045 0.0000 -169907.8045 -169907.8045 0.0000 14777.5653 -5488.4126 534946.2959 14777.5653 -5488.4126
ENERGY: 440 405.9127 728.2322 2895.3393 0.0000 -193792.1079 19110.0808 294.2587 0.0000 0.0000 -170358.2841 0.0000 -170358.2841 -170358.2841 0.0000 14713.4934 -5678.8904 534946.2959 14713.4934 -5678.8904
ENERGY: 460 153.8420 652.5512 2882.7339 0.0000 -193654.2988 19067.0740 273.3264 0.0000 0.0000 -170624.7713 0.0000 -170624.7713 -170624.7713 0.0000 14819.6496 -5584.1393 534946.2959 14819.6496 -5584.1393
ENERGY: 480 161.7904 635.5348 2881.8046 0.0000 -194175.9755 19279.0774 276.1302 0.0000 0.0000 -170941.6380 0.0000 -170941.6380 -170941.6380 0.0000 14918.3356 -5528.3642 534946.2959 14918.3356 -5528.3642
ENERGY: 500 150.1640 647.5798 2885.1480 0.0000 -194977.5791 19588.9956 291.4907 0.0000 0.0000 -171414.2010 0.0000 -171414.2010 -171414.2010 0.0000 15059.5906 -5488.9081 534946.2959 15059.5906 -5488.9081
TCL: Setting parameter constraintScaling to 0.3125
TCL: Minimizing for 100 steps
ETITLE: TS BOND ANGLE DIHED IMPRP ELECT VDW BOUNDARY MISC KINETIC TOTAL TEMP POTENTIAL TOTAL3 TEMPAVG PRESSURE GPRESSURE VOLUME PRESSAVG GPRESSAVG
ENERGY: 500 150.1640 647.5798 2885.1480 0.0000 -194977.5791 19588.9956 145.7453 0.0000 0.0000 -171559.9464 0.0000 -171559.9464 -171559.9464 0.0000 15248.6592 -26853.2493 534946.2959 15248.6592 -26853.2493
ENERGY: 520 157.7760 657.9802 2873.2611 0.0000 -195346.9874 19695.8116 164.4253 0.0000 0.0000 -171797.7333 0.0000 -171797.7333 -171797.7333 0.0000 15243.1296 -5344.6268 534946.2959 15243.1296 -5344.6268
ENERGY: 540 170.5124 659.2155 2874.2423 0.0000 -196002.2057 19911.0201 188.4262 0.0000 0.0000 -172198.7891 0.0000 -172198.7891 -172198.7891 0.0000 15266.2810 -5376.8965 534946.2959 15266.2810 -5376.8965
ENERGY: 560 154.9778 644.9259 2869.3221 0.0000 -196664.0068 20163.3686 199.1037 0.0000 0.0000 -172632.3087 0.0000 -172632.3087 -172632.3087 0.0000 15405.6775 -5322.6371 534946.2959 15405.6775 -5322.6371
ENERGY: 580 152.5805 659.7166 2866.8520 0.0000 -197245.1884 20384.3861 210.8619 0.0000 0.0000 -172970.7914 0.0000 -172970.7914 -172970.7914 0.0000 15543.1597 -5271.1712 534946.2959 15543.1597 -5271.1712
ENERGY: 600 173.0267 641.5172 2863.3622 0.0000 -197728.4819 20573.5055 216.5469 0.0000 0.0000 -173260.5235 0.0000 -173260.5235 -173260.5235 0.0000 15585.9830 -5258.2227 534946.2959 15585.9830 -5258.2227
TCL: Setting parameter constraintScaling to 0.15625
TCL: Minimizing for 100 steps
ETITLE: TS BOND ANGLE DIHED IMPRP ELECT VDW BOUNDARY MISC KINETIC TOTAL TEMP POTENTIAL TOTAL3 TEMPAVG PRESSURE GPRESSURE VOLUME PRESSAVG GPRESSAVG
ENERGY: 600 173.0267 641.5172 2863.3622 0.0000 -197728.4819 20573.5055 108.2735 0.0000 0.0000 -173368.7969 0.0000 -173368.7969 -173368.7969 0.0000 15704.9305 -27045.2081 534946.2959 15704.9305 -27045.2081
ENERGY: 620 162.8872 643.1161 2862.0113 0.0000 -198004.1652 20664.9079 114.5469 0.0000 0.0000 -173556.6958 0.0000 -173556.6958 -173556.6958 0.0000 15729.5205 -5149.7781 534946.2959 15729.5205 -5149.7781
ENERGY: 640 161.7719 650.5969 2860.0967 0.0000 -198405.5199 20806.1783 122.2655 0.0000 0.0000 -173804.6106 0.0000 -173804.6106 -173804.6106 0.0000 15795.6506 -5132.6378 534946.2959 15795.6506 -5132.6378
ENERGY: 660 158.8923 649.6221 2852.3549 0.0000 -198957.4985 21008.3997 132.2011 0.0000 0.0000 -174156.0285 0.0000 -174156.0285 -174156.0285 0.0000 15865.9379 -5123.1206 534946.2959 15865.9379 -5123.1206
ENERGY: 680 158.2123 644.3268 2846.5808 0.0000 -199760.4336 21317.3773 142.8849 0.0000 0.0000 -174651.0514 0.0000 -174651.0514 -174651.0514 0.0000 16030.1115 -5059.1641 534946.2959 16030.1115 -5059.1641
ENERGY: 700 154.2372 641.0121 2843.7716 0.0000 -200180.7027 21487.4976 148.6361 0.0000 0.0000 -174905.5481 0.0000 -174905.5481 -174905.5481 0.0000 16125.3985 -5018.5374 534946.2959 16125.3985 -5018.5374
TCL: Setting parameter constraintScaling to 0.078125
TCL: Minimizing for 100 steps
ETITLE: TS BOND ANGLE DIHED IMPRP ELECT VDW BOUNDARY MISC KINETIC TOTAL TEMP POTENTIAL TOTAL3 TEMPAVG PRESSURE GPRESSURE VOLUME PRESSAVG GPRESSAVG
ENERGY: 700 154.2372 641.0121 2843.7716 0.0000 -200180.7027 21487.4976 74.3181 0.0000 0.0000 -174979.8661 0.0000 -174979.8661 -174979.8661 0.0000 16197.5761 -27137.8487 534946.2959 16197.5761 -27137.8487
ENERGY: 720 163.0975 654.5150 2839.8453 0.0000 -200635.6426 21651.8792 80.3333 0.0000 0.0000 -175245.9724 0.0000 -175245.9724 -175245.9724 0.0000 16244.7179 -4945.5904 534946.2959 16244.7179 -4945.5904
ENERGY: 740 251.3329 679.4882 2844.9383 0.0000 -200944.8623 21756.9659 81.5004 0.0000 0.0000 -175330.6367 0.0000 -175330.6367 -175330.6367 0.0000 16283.8381 -4943.0427 534946.2959 16283.8381 -4943.0427
ENERGY: 760 182.0678 666.4424 2836.6321 0.0000 -201162.5990 21840.0325 83.8037 0.0000 0.0000 -175553.6204 0.0000 -175553.6204 -175553.6204 0.0000 16329.8473 -4919.8269 534946.2959 16329.8473 -4919.8269
ENERGY: 780 162.8273 656.5256 2833.0354 0.0000 -201360.8373 21915.5070 86.2283 0.0000 0.0000 -175706.7137 0.0000 -175706.7137 -175706.7137 0.0000 16381.5492 -4895.0788 534946.2959 16381.5492 -4895.0788
ENERGY: 800 163.4919 658.2883 2832.3631 0.0000 -201946.7695 22139.3301 91.0166 0.0000 0.0000 -176062.2795 0.0000 -176062.2795 -176062.2795 0.0000 16500.7792 -4857.6762 534946.2959 16500.7792 -4857.6762
TCL: Setting parameter constraintScaling to 0.0390625
TCL: Minimizing for 100 steps
ETITLE: TS BOND ANGLE DIHED IMPRP ELECT VDW BOUNDARY MISC KINETIC TOTAL TEMP POTENTIAL TOTAL3 TEMPAVG PRESSURE GPRESSURE VOLUME PRESSAVG GPRESSAVG
ENERGY: 800 163.4919 658.2883 2832.3631 0.0000 -201946.7695 22139.3301 45.5083 0.0000 0.0000 -176107.7878 0.0000 -176107.7878 -176107.7878 0.0000 16541.5787 -27215.0835 534946.2959 16541.5787 -27215.0835
ENERGY: 820 160.9865 659.5834 2828.0103 0.0000 -202172.8908 22227.4419 46.8318 0.0000 0.0000 -176250.0369 0.0000 -176250.0369 -176250.0369 0.0000 16599.3463 -4793.8340 534946.2959 16599.3463 -4793.8340
ENERGY: 840 177.7921 664.7909 2827.2335 0.0000 -202890.0055 22513.5141 50.4511 0.0000 0.0000 -176656.2238 0.0000 -176656.2238 -176656.2238 0.0000 16739.3755 -4733.3111 534946.2959 16739.3755 -4733.3111
ENERGY: 860 168.5245 648.1222 2824.8674 0.0000 -202986.4263 22558.3736 51.1433 0.0000 0.0000 -176735.3952 0.0000 -176735.3952 -176735.3952 0.0000 16704.7096 -4752.5486 534946.2959 16704.7096 -4752.5486
ENERGY: 880 186.4752 671.5099 2821.4296 0.0000 -203469.9499 22771.8355 53.9277 0.0000 0.0000 -176964.7720 0.0000 -176964.7720 -176964.7720 0.0000 16810.4670 -4702.3794 534946.2959 16810.4670 -4702.3794
ENERGY: 900 185.2827 673.1367 2818.1880 0.0000 -204589.9387 23288.3843 59.5406 0.0000 0.0000 -177565.4064 0.0000 -177565.4064 -177565.4064 0.0000 17096.6354 -4556.0421 534946.2959 17096.6354 -4556.0421
TCL: Setting parameter constraintScaling to 0.01953125
TCL: Minimizing for 100 steps
ETITLE: TS BOND ANGLE DIHED IMPRP ELECT VDW BOUNDARY MISC KINETIC TOTAL TEMP POTENTIAL TOTAL3 TEMPAVG PRESSURE GPRESSURE VOLUME PRESSAVG GPRESSAVG
ENERGY: 900 185.2827 673.1367 2818.1880 0.0000 -204589.9387 23288.3843 29.7703 0.0000 0.0000 -177595.1767 0.0000 -177595.1767 -177595.1767 0.0000 17121.0539 -27267.4653 534946.2959 17121.0539 -27267.4653
ENERGY: 920 162.5348 652.1010 2813.6371 0.0000 -204675.6866 23317.6046 30.1171 0.0000 0.0000 -177699.6920 0.0000 -177699.6920 -177699.6920 0.0000 17140.3697 -4523.7824 534946.2959 17140.3697 -4523.7824
ENERGY: 940 160.9922 647.5824 2812.9745 0.0000 -205041.0644 23471.4519 31.0872 0.0000 0.0000 -177916.9763 0.0000 -177916.9763 -177916.9763 0.0000 17230.1811 -4480.0411 534946.2959 17230.1811 -4480.0411
ENERGY: 960 206.7268 678.4862 2815.0019 0.0000 -205272.1056 23561.5597 32.1321 0.0000 0.0000 -177978.1990 0.0000 -177978.1990 -177978.1990 0.0000 17227.0625 -4506.7405 534946.2959 17227.0625 -4506.7405
ENERGY: 980 328.3705 750.6023 2824.3006 0.0000 -205931.2170 23870.4309 34.5244 0.0000 0.0000 -178122.9883 0.0000 -178122.9883 -178122.9883 0.0000 17396.1673 -4414.9056 534946.2959 17396.1673 -4414.9056
ENERGY: 1000 168.7860 660.6875 2809.0364 0.0000 -205823.3852 23796.3658 33.8865 0.0000 0.0000 -178354.6229 0.0000 -178354.6229 -178354.6229 0.0000 17380.8191 -4419.0210 534946.2959 17380.8191 -4419.0210
TCL: Setting parameter constraintScaling to 0
TCL: Minimizing for 5000 steps
ETITLE: TS BOND ANGLE DIHED IMPRP ELECT VDW BOUNDARY MISC KINETIC TOTAL TEMP POTENTIAL TOTAL3 TEMPAVG PRESSURE GPRESSURE VOLUME PRESSAVG GPRESSAVG
ENERGY: 1000 168.7860 660.6875 2809.0364 0.0000 -205823.3852 23796.3658 0.0000 0.0000 0.0000 -178388.5095 0.0000 -178388.5095 -178388.5095 0.0000 17407.3910 -27275.5895 534946.2959 17407.3910 -27275.5895
ENERGY: 2000 176.4359 666.0977 2801.5994 0.0000 -214962.8828 27848.1052 0.0000 0.0000 0.0000 -183470.6447 0.0000 -183470.6447 -183470.6447 0.0000 19562.0828 -3275.7797 534946.2959 19562.0828 -3275.7797
ENERGY: 3000 166.1620 664.5814 2795.8543 0.0000 -217689.1101 28931.8447 0.0000 0.0000 0.0000 -185130.6677 0.0000 -185130.6677 -185130.6677 0.0000 20137.2483 -2978.4111 534946.2959 20137.2483 -2978.4111
ENERGY: 4000 167.1201 665.2736 2786.8034 0.0000 -218944.8025 29497.0681 0.0000 0.0000 0.0000 -185828.5373 0.0000 -185828.5373 -185828.5373 0.0000 20441.5482 -2802.8660 534946.2959 20441.5482 -2802.8660
ENERGY: 5000 166.1325 665.0958 2782.2136 0.0000 -219595.3819 29772.8576 0.0000 0.0000 0.0000 -186209.0824 0.0000 -186209.0824 -186209.0824 0.0000 20575.0408 -2716.7328 534946.2959 20575.0408 -2716.7328
ENERGY: 6000 165.9750 665.8236 2783.4473 0.0000 -220033.6299 29942.5489 0.0000 0.0000 0.0000 -186475.8350 0.0000 -186475.8350 -186475.8350 0.0000 20669.5851 -2674.3943 534946.2959 20669.5851 -2674.3943
