Info: SIMULATION PARAMETERS:
Info: TIMESTEP               2
Info: NUMBER OF STEPS        0
Info: STEPS PER CYCLE        10
Info: PERIODIC CELL BASIS 1  72.449 0 0
Info: PERIODIC CELL BASIS 2  0 93.247 0
Info: PERIODIC CELL BASIS 3  0 0 79.185
Info: PERIODIC CELL CENTER   -0.248 -0.156 -0.047
Info: WRAPPING WATERS AROUND PERIODIC BOUNDARIES ON OUTPUT.
Info: WRAPPING ALL CLUSTERS AROUND PERIODIC BOUNDARIES ON OUTPUT.
Info: FIRST LDB TIMESTEP     50
Info: LAST LDB TIMESTEP     -1
Info: HOM BACKGROUND SCALING 1
Info: PME BACKGROUND SCALING 1
Info: MIN ATOMS PER PATCH    40
Info: INITIAL TEMPERATURE    0
Info: CENTER OF MASS MOVING INITIALLY? NO
Info: DIELECTRIC             1
Info: EXCLUDE                SCALED ONE-FOUR
Info: 1-4 ELECTROSTATICS SCALED BY 0.833333
Info: MODIFIED 1-4 VDW PARAMETERS WILL BE USED
Info: NO DCD TRAJECTORY OUTPUT
Info: NO EXTENDED SYSTEM TRAJECTORY OUTPUT
Info: NO VELOCITY DCD OUTPUT
Info: NO FORCE DCD OUTPUT
Info: OUTPUT FILENAME        ../replicas/rep47/equilibration/eq0
Info: NO RESTART FILE
Info: SWITCHING ACTIVE
Info: SWITCHING ON           10
Info: SWITCHING OFF          12
Info: PAIRLIST DISTANCE      13.5
Info: PAIRLIST SHRINK RATE   0.01
Info: PAIRLIST GROW RATE     0.01
Info: PAIRLIST TRIGGER       0.3
Info: PAIRLISTS PER CYCLE    2
Info: PAIRLISTS ENABLED
Info: MARGIN                 0
Info: HYDROGEN GROUP CUTOFF  2.5
Info: PATCH DIMENSION        16
Info: ENERGY OUTPUT STEPS    500
Info: CROSSTERM ENERGY INCLUDED IN DIHEDRAL
Info: TIMING OUTPUT STEPS    5000
Info: PRESSURE OUTPUT STEPS  500
Info: HARMONIC CONSTRAINTS ACTIVE
Info: HARMONIC CONS EXP      2
Info: HARMONIC CONS SCALING  10
Info: CONJUGATE GRADIENT MINIMIZATION ACTIVE
Info: LINE MINIMIZATION GOAL = 0.001
Info: BABY STEP SIZE = 0.01
Info: TINY STEP SIZE = 1e-06
Info: PARTICLE MESH EWALD (PME) ACTIVE
Info: PME TOLERANCE               1e-06
Info: PME EWALD COEFFICIENT       0.257952
Info: PME INTERPOLATION ORDER     4
Info: PME GRID DIMENSIONS         80 96 80
Info: PME MAXIMUM GRID SPACING    1
Info: FULL ELECTROSTATIC EVALUATION FREQUENCY      2
Info: USING VERLET I (r-RESPA) MTS SCHEME.
Info: C1 SPLITTING OF LONG RANGE ELECTROSTATICS
Info: PLACING ATOMS IN PATCHES BY HYDROGEN GROUPS
Info: RIGID BONDS TO HYDROGEN : ALL
Info:         ERROR TOLERANCE : 1e-05
Info:          MAX ITERATIONS : 100
Info: RIGID WATER USING SETTLE ALGORITHM
Info: RANDOM NUMBER SEED     1503691519
Info: USE HYDROGEN BONDS?    NO
Info: Using AMBER format force field!
Info: AMBER PARM FILE        ../build/complex.top
Info: COORDINATE PDB         ../build/complex.pdb
Info: Exclusions in PARM file will be ignored!
Info: SCNB (VDW SCALING)     2
Info: USING ARITHMETIC MEAN TO COMBINE L-J SIGMA PARAMETERS
Info: SUMMARY OF PARAMETERS:
Info: 71 BONDS
Info: 145 ANGLES
Info: 76 DIHEDRAL
Info: 0 IMPROPER
Info: 0 CROSSTERM
Info: 0 VDW
Info: 190 VDW_PAIRS
Info: 0 NBTHOLE_PAIRS
Info: STRUCTURE SUMMARY:
Info: 49394 ATOMS
Info: 49448 BONDS
Info: 8698 ANGLES
Info: 18780 DIHEDRALS
Info: 0 IMPROPERS
Info: 0 CROSSTERMS
Info: 0 EXCLUSIONS
Info: 2336 CONSTRAINTS
Info: 47058 RIGID BONDS
Info: 101124 DEGREES OF FREEDOM
Info: 17225 HYDROGEN GROUPS
Info: 4 ATOMS IN LARGEST HYDROGEN GROUP
Info: 17225 MIGRATION GROUPS
Info: 4 ATOMS IN LARGEST MIGRATION GROUP
Info: TOTAL MASS = 301478 amu
Info: TOTAL CHARGE = 1.00115e-05 e
Info: MASS DENSITY = 0.935846 g/cm^3
Info: ATOM DENSITY = 0.0923345 atoms/A^3
Info: ADDED 70656 IMPLICIT EXCLUSIONS
Info: NONBONDED TABLE R-SQUARED SPACING: 0.0625
Info: NONBONDED TABLE SIZE: 769 POINTS
Info: REMOVING COM VELOCITY 0 0 0
TCL: Minimizing for 100 steps
ETITLE: TS BOND ANGLE DIHED IMPRP ELECT VDW BOUNDARY MISC KINETIC TOTAL TEMP POTENTIAL TOTAL3 TEMPAVG PRESSURE GPRESSURE VOLUME PRESSAVG GPRESSAVG
ENERGY: 0 155.4176 1012.2698 2855.7272 0.0000 -154496.7911 207729.2052 0.0468 0.0000 0.0000 57255.8755 0.0000 57255.8755 57255.8755 0.0000 116350.2532 86546.1670 534946.2959 116350.2532 86546.1670
ENERGY: 20 304.7571 935.7914 2893.4663 0.0000 -158672.9419 17936.6586 143.9455 0.0000 0.0000 -136458.3230 0.0000 -136458.3230 -136458.3230 0.0000 16523.9378 -239.4568 534946.2959 16523.9378 -239.4568
ENERGY: 40 198.7459 799.5730 2896.9273 0.0000 -162811.4516 16417.9541 221.3030 0.0000 0.0000 -142276.9483 0.0000 -142276.9483 -142276.9483 0.0000 15011.2707 -2135.4693 534946.2959 15011.2707 -2135.4693
ENERGY: 60 130.5282 715.3440 2898.2166 0.0000 -167496.1555 15446.7542 315.2796 0.0000 0.0000 -147990.0330 0.0000 -147990.0330 -147990.0330 0.0000 13793.8841 -3799.3981 534946.2959 13793.8841 -3799.3981
ENERGY: 80 431.2702 765.6302 2904.3787 0.0000 -169937.5268 15121.1526 372.0123 0.0000 0.0000 -150343.0827 0.0000 -150343.0827 -150343.0827 0.0000 13270.3314 -4577.2432 534946.2959 13270.3314 -4577.2432
ENERGY: 100 129.7137 708.0649 2904.2781 0.0000 -171050.0648 15018.6534 384.2001 0.0000 0.0000 -151905.1545 0.0000 -151905.1545 -151905.1545 0.0000 13092.9131 -4843.6309 534946.2959 13092.9131 -4843.6309
TCL: Setting parameter constraintScaling to 5.0
TCL: Minimizing for 100 steps
ETITLE: TS BOND ANGLE DIHED IMPRP ELECT VDW BOUNDARY MISC KINETIC TOTAL TEMP POTENTIAL TOTAL3 TEMPAVG PRESSURE GPRESSURE VOLUME PRESSAVG GPRESSAVG
ENERGY: 100 129.7137 708.0649 2904.2781 0.0000 -171050.0648 15018.6534 192.1000 0.0000 0.0000 -152097.2545 0.0000 -152097.2545 -152097.2545 0.0000 13703.5082 -22944.4542 534946.2959 13703.5082 -22944.4542
ENERGY: 120 118.6820 680.2875 2909.9066 0.0000 -172396.3128 14830.1205 259.9549 0.0000 0.0000 -153597.3614 0.0000 -153597.3614 -153597.3614 0.0000 13320.9475 -4756.3071 534946.2959 13320.9475 -4756.3071
ENERGY: 140 109.1476 671.1464 2912.0864 0.0000 -174830.2885 14716.1436 337.7316 0.0000 0.0000 -156084.0329 0.0000 -156084.0329 -156084.0329 0.0000 12908.9554 -5423.1525 534946.2959 12908.9554 -5423.1525
ENERGY: 160 302.9905 691.2570 2915.1767 0.0000 -176082.5137 14739.2617 369.8366 0.0000 0.0000 -157063.9912 0.0000 -157063.9912 -157063.9912 0.0000 12780.5585 -5681.1683 534946.2959 12780.5585 -5681.1683
ENERGY: 180 182.1843 640.7515 2917.0632 0.0000 -177289.4058 14805.0567 391.8973 0.0000 0.0000 -158352.4527 0.0000 -158352.4527 -158352.4527 0.0000 12715.3609 -5870.4165 534946.2959 12715.3609 -5870.4165
ENERGY: 200 200.8290 672.8052 2923.8878 0.0000 -179262.9007 15029.6550 438.8808 0.0000 0.0000 -159996.8430 0.0000 -159996.8430 -159996.8430 0.0000 12652.1226 -6145.4760 534946.2959 12652.1226 -6145.4760
TCL: Setting parameter constraintScaling to 2.5
TCL: Minimizing for 100 steps
ETITLE: TS BOND ANGLE DIHED IMPRP ELECT VDW BOUNDARY MISC KINETIC TOTAL TEMP POTENTIAL TOTAL3 TEMPAVG PRESSURE GPRESSURE VOLUME PRESSAVG GPRESSAVG
ENERGY: 200 200.8290 672.8052 2923.8878 0.0000 -179262.9007 15029.6550 219.4404 0.0000 0.0000 -160216.2834 0.0000 -160216.2834 -160216.2834 0.0000 13194.5889 -25230.4883 534946.2959 13194.5889 -25230.4883
ENERGY: 220 129.4246 648.4096 2922.2170 0.0000 -180050.4015 15072.5744 269.1056 0.0000 0.0000 -161008.6703 0.0000 -161008.6703 -161008.6703 0.0000 13073.4215 -5819.2332 534946.2959 13073.4215 -5819.2332
ENERGY: 240 166.7666 631.3595 2922.8559 0.0000 -181876.8585 15336.5313 358.8888 0.0000 0.0000 -162460.4565 0.0000 -162460.4565 -162460.4565 0.0000 12913.8302 -6149.4995 534946.2959 12913.8302 -6149.4995
ENERGY: 260 364.6753 681.2881 2926.7363 0.0000 -184020.2867 15848.9732 463.4978 0.0000 0.0000 -163735.1160 0.0000 -163735.1160 -163735.1160 0.0000 12946.4643 -6364.6353 534946.2959 12946.4643 -6364.6353
ENERGY: 280 203.5189 654.9928 2926.4716 0.0000 -186025.5684 16581.7747 535.1214 0.0000 0.0000 -165123.6891 0.0000 -165123.6891 -165123.6891 0.0000 13152.3043 -6363.1085 534946.2959 13152.3043 -6363.1085
ENERGY: 300 129.0377 634.4129 2921.8501 0.0000 -187696.3072 17313.3567 557.1178 0.0000 0.0000 -166140.5321 0.0000 -166140.5321 -166140.5321 0.0000 13543.3241 -6167.7541 534946.2959 13543.3241 -6167.7541
TCL: Setting parameter constraintScaling to 1.25
TCL: Minimizing for 100 steps
ETITLE: TS BOND ANGLE DIHED IMPRP ELECT VDW BOUNDARY MISC KINETIC TOTAL TEMP POTENTIAL TOTAL3 TEMPAVG PRESSURE GPRESSURE VOLUME PRESSAVG GPRESSAVG
ENERGY: 300 129.0377 634.4129 2921.8501 0.0000 -187696.3073 17313.3567 278.5589 0.0000 0.0000 -166419.0910 0.0000 -166419.0910 -166419.0910 0.0000 14034.5552 -26319.5528 534946.2959 14034.5552 -26319.5528
ENERGY: 320 135.2216 631.8819 2912.3728 0.0000 -188177.1489 17273.1222 319.0153 0.0000 0.0000 -166905.5352 0.0000 -166905.5352 -166905.5352 0.0000 13913.1925 -5863.2803 534946.2959 13913.1925 -5863.2803
ENERGY: 340 211.6040 635.6134 2899.8731 0.0000 -189805.1053 17631.1604 388.2307 0.0000 0.0000 -168038.6237 0.0000 -168038.6237 -168038.6237 0.0000 13919.5071 -6034.5362 534946.2959 13919.5071 -6034.5362
ENERGY: 360 236.3823 648.0310 2909.5052 0.0000 -190649.5511 17968.3000 380.7834 0.0000 0.0000 -168506.5492 0.0000 -168506.5492 -168506.5492 0.0000 14081.8103 -5958.6191 534946.2959 14081.8103 -5958.6191
ENERGY: 380 175.7497 649.2285 2905.2068 0.0000 -192280.1212 18790.6276 365.6571 0.0000 0.0000 -169393.6516 0.0000 -169393.6516 -169393.6516 0.0000 14632.7659 -5621.1228 534946.2959 14632.7659 -5621.1228
ENERGY: 400 176.8112 656.8518 2910.1590 0.0000 -194382.2396 19847.1768 418.7933 0.0000 0.0000 -170372.4476 0.0000 -170372.4476 -170372.4476 0.0000 15066.1970 -5412.9163 534946.2959 15066.1970 -5412.9163
TCL: Setting parameter constraintScaling to 0.625
TCL: Minimizing for 100 steps
ETITLE: TS BOND ANGLE DIHED IMPRP ELECT VDW BOUNDARY MISC KINETIC TOTAL TEMP POTENTIAL TOTAL3 TEMPAVG PRESSURE GPRESSURE VOLUME PRESSAVG GPRESSAVG
ENERGY: 400 176.8112 656.8518 2910.1590 0.0000 -194382.2396 19847.1768 209.3966 0.0000 0.0000 -170581.8442 0.0000 -170581.8442 -170581.8442 0.0000 15372.5233 -26593.0542 534946.2959 15372.5233 -26593.0542
ENERGY: 420 142.4735 629.9016 2881.3086 0.0000 -194634.6468 19662.3137 238.7909 0.0000 0.0000 -171079.8583 0.0000 -171079.8583 -171079.8583 0.0000 15213.8461 -5295.0529 534946.2959 15213.8461 -5295.0529
ENERGY: 440 158.5911 649.8899 2887.4400 0.0000 -194979.7872 19651.2233 273.9001 0.0000 0.0000 -171358.7427 0.0000 -171358.7427 -171358.7427 0.0000 15101.8584 -5434.7810 534946.2959 15101.8584 -5434.7810
ENERGY: 460 312.7418 716.8289 2883.2089 0.0000 -195442.9962 19829.3900 281.7732 0.0000 0.0000 -171419.0534 0.0000 -171419.0534 -171419.0534 0.0000 15166.4875 -5422.9010 534946.2959 15166.4875 -5422.9010
ENERGY: 480 181.0376 659.5146 2879.0999 0.0000 -196295.3950 20213.1883 296.8669 0.0000 0.0000 -172065.6878 0.0000 -172065.6878 -172065.6878 0.0000 15414.1626 -5281.0515 534946.2959 15414.1626 -5281.0515
ENERGY: 500 145.9675 638.7950 2884.0609 0.0000 -196399.7938 20195.2061 303.4279 0.0000 0.0000 -172232.3364 0.0000 -172232.3364 -172232.3364 0.0000 15350.0749 -5348.6742 534946.2959 15350.0749 -5348.6742
TCL: Setting parameter constraintScaling to 0.3125
TCL: Minimizing for 100 steps
ETITLE: TS BOND ANGLE DIHED IMPRP ELECT VDW BOUNDARY MISC KINETIC TOTAL TEMP POTENTIAL TOTAL3 TEMPAVG PRESSURE GPRESSURE VOLUME PRESSAVG GPRESSAVG
ENERGY: 500 145.9675 638.7950 2884.0609 0.0000 -196399.7938 20195.2061 151.7139 0.0000 0.0000 -172384.0503 0.0000 -172384.0503 -172384.0503 0.0000 15538.8680 -26897.9546 534946.2959 15538.8680 -26897.9546
ENERGY: 520 145.1807 632.3341 2870.0536 0.0000 -196688.8780 20242.5678 168.4549 0.0000 0.0000 -172630.2869 0.0000 -172630.2869 -172630.2869 0.0000 15520.5658 -5218.4447 534946.2959 15520.5658 -5218.4447
ENERGY: 540 162.0085 653.2761 2869.2983 0.0000 -197257.5654 20408.9218 196.8578 0.0000 0.0000 -172967.2029 0.0000 -172967.2029 -172967.2029 0.0000 15529.0061 -5270.9266 534946.2959 15529.0061 -5270.9266
ENERGY: 560 250.7939 688.4415 2872.4436 0.0000 -197760.0338 20593.2996 205.1768 0.0000 0.0000 -173149.8784 0.0000 -173149.8784 -173149.8784 0.0000 15614.4364 -5234.8938 534946.2959 15614.4364 -5234.8938
ENERGY: 580 158.7680 657.4808 2867.4527 0.0000 -198099.9741 20735.0181 208.1914 0.0000 0.0000 -173473.0631 0.0000 -173473.0631 -173473.0631 0.0000 15693.5030 -5208.8108 534946.2959 15693.5030 -5208.8108
ENERGY: 600 168.1961 648.6655 2860.0748 0.0000 -198541.9083 20921.4797 211.2858 0.0000 0.0000 -173732.2064 0.0000 -173732.2064 -173732.2064 0.0000 15804.7661 -5148.1295 534946.2959 15804.7661 -5148.1295
TCL: Setting parameter constraintScaling to 0.15625
TCL: Minimizing for 100 steps
ETITLE: TS BOND ANGLE DIHED IMPRP ELECT VDW BOUNDARY MISC KINETIC TOTAL TEMP POTENTIAL TOTAL3 TEMPAVG PRESSURE GPRESSURE VOLUME PRESSAVG GPRESSAVG
ENERGY: 600 168.1961 648.6655 2860.0748 0.0000 -198541.9083 20921.4797 105.6429 0.0000 0.0000 -173837.8493 0.0000 -173837.8493 -173837.8493 0.0000 15920.7383 -27026.6082 534946.2959 15920.7383 -27026.6082
ENERGY: 620 175.3026 657.0273 2862.1036 0.0000 -198816.8632 20979.2576 114.8795 0.0000 0.0000 -174028.2927 0.0000 -174028.2927 -174028.2927 0.0000 15910.9524 -5077.6808 534946.2959 15910.9524 -5077.6808
ENERGY: 640 165.0317 653.3371 2853.4544 0.0000 -199131.0031 21090.2992 121.6872 0.0000 0.0000 -174247.1935 0.0000 -174247.1935 -174247.1935 0.0000 15955.7745 -5060.8344 534946.2959 15955.7745 -5060.8344
ENERGY: 660 176.9487 652.1780 2850.3318 0.0000 -199959.7942 21389.3365 137.4687 0.0000 0.0000 -174753.5305 0.0000 -174753.5305 -174753.5305 0.0000 16072.5399 -5046.3822 534946.2959 16072.5399 -5046.3822
ENERGY: 680 160.5593 646.5914 2845.7156 0.0000 -200470.1599 21592.3392 145.4658 0.0000 0.0000 -175079.4886 0.0000 -175079.4886 -175079.4886 0.0000 16172.3472 -5005.2846 534946.2959 16172.3472 -5005.2846
ENERGY: 700 187.8460 696.1253 2841.1892 0.0000 -201021.8147 21828.8038 147.3813 0.0000 0.0000 -175320.4691 0.0000 -175320.4691 -175320.4691 0.0000 16332.3148 -4917.9025 534946.2959 16332.3148 -4917.9025
TCL: Setting parameter constraintScaling to 0.078125
TCL: Minimizing for 100 steps
ETITLE: TS BOND ANGLE DIHED IMPRP ELECT VDW BOUNDARY MISC KINETIC TOTAL TEMP POTENTIAL TOTAL3 TEMPAVG PRESSURE GPRESSURE VOLUME PRESSAVG GPRESSAVG
ENERGY: 700 187.8460 696.1253 2841.1892 0.0000 -201021.8147 21828.8038 73.6906 0.0000 0.0000 -175394.1598 0.0000 -175394.1598 -175394.1598 0.0000 16403.2334 -27138.5678 534946.2959 16403.2334 -27138.5678
ENERGY: 720 190.5476 646.0221 2842.5923 0.0000 -201121.5402 21841.0695 76.1634 0.0000 0.0000 -175525.1454 0.0000 -175525.1454 -175525.1454 0.0000 16366.2415 -4885.8651 534946.2959 16366.2415 -4885.8651
ENERGY: 740 168.9991 651.1227 2838.0077 0.0000 -201464.2554 21958.7323 81.0978 0.0000 0.0000 -175766.2958 0.0000 -175766.2958 -175766.2958 0.0000 16407.4033 -4886.0861 534946.2959 16407.4033 -4886.0861
ENERGY: 760 157.3300 658.9046 2834.3131 0.0000 -201867.1788 22114.3948 84.7688 0.0000 0.0000 -176017.4676 0.0000 -176017.4676 -176017.4676 0.0000 16496.9926 -4843.5138 534946.2959 16496.9926 -4843.5138
ENERGY: 780 194.9106 688.9809 2838.8658 0.0000 -202142.9530 22222.4144 87.8886 0.0000 0.0000 -176109.8927 0.0000 -176109.8927 -176109.8927 0.0000 16518.0159 -4857.4509 534946.2959 16518.0159 -4857.4509
ENERGY: 800 202.2912 670.0219 2829.9430 0.0000 -202762.0324 22493.6405 91.9119 0.0000 0.0000 -176474.2239 0.0000 -176474.2239 -176474.2239 0.0000 16668.3963 -4773.9501 534946.2959 16668.3963 -4773.9501
TCL: Setting parameter constraintScaling to 0.0390625
TCL: Minimizing for 100 steps
ETITLE: TS BOND ANGLE DIHED IMPRP ELECT VDW BOUNDARY MISC KINETIC TOTAL TEMP POTENTIAL TOTAL3 TEMPAVG PRESSURE GPRESSURE VOLUME PRESSAVG GPRESSAVG
ENERGY: 800 202.2912 670.0219 2829.9430 0.0000 -202762.0324 22493.6405 45.9559 0.0000 0.0000 -176520.1798 0.0000 -176520.1798 -176520.1798 0.0000 16709.0828 -27244.2734 534946.2959 16709.0828 -27244.2734
ENERGY: 820 157.4114 642.3437 2828.7934 0.0000 -202830.8656 22507.2507 46.2782 0.0000 0.0000 -176648.7882 0.0000 -176648.7882 -176648.7882 0.0000 16734.0397 -4718.4648 534946.2959 16734.0397 -4718.4648
ENERGY: 840 242.0711 677.1755 2833.8884 0.0000 -203281.9511 22683.6578 50.3297 0.0000 0.0000 -176794.8286 0.0000 -176794.8286 -176794.8286 0.0000 16748.0123 -4742.3362 534946.2959 16748.0123 -4742.3362
ENERGY: 860 170.5297 656.3013 2823.0650 0.0000 -203534.2278 22783.8537 51.4769 0.0000 0.0000 -177049.0012 0.0000 -177049.0012 -177049.0012 0.0000 16842.4755 -4690.4518 534946.2959 16842.4755 -4690.4518
ENERGY: 880 159.0794 652.3463 2821.4236 0.0000 -203806.9737 22903.7821 52.5764 0.0000 0.0000 -177217.7659 0.0000 -177217.7659 -177217.7659 0.0000 16922.5955 -4647.5401 534946.2959 16922.5955 -4647.5401
ENERGY: 900 167.4621 661.3108 2817.4395 0.0000 -204303.1748 23123.4488 54.8704 0.0000 0.0000 -177478.6432 0.0000 -177478.6432 -177478.6432 0.0000 17051.3016 -4584.3544 534946.2959 17051.3016 -4584.3544
TCL: Setting parameter constraintScaling to 0.01953125
TCL: Minimizing for 100 steps
ETITLE: TS BOND ANGLE DIHED IMPRP ELECT VDW BOUNDARY MISC KINETIC TOTAL TEMP POTENTIAL TOTAL3 TEMPAVG PRESSURE GPRESSURE VOLUME PRESSAVG GPRESSAVG
ENERGY: 900 167.4621 661.3108 2817.4395 0.0000 -204303.1748 23123.4488 27.4352 0.0000 0.0000 -177506.0784 0.0000 -177506.0784 -177506.0784 0.0000 17074.0173 -27246.9985 534946.2959 17074.0173 -27246.9985
ENERGY: 920 185.9873 671.4662 2818.1339 0.0000 -204565.7510 23234.8814 28.4159 0.0000 0.0000 -177626.8663 0.0000 -177626.8663 -177626.8663 0.0000 17125.1089 -4542.7841 534946.2959 17125.1089 -4542.7841
ENERGY: 940 160.5157 653.7125 2814.7220 0.0000 -204740.2475 23308.2395 29.0226 0.0000 0.0000 -177774.0352 0.0000 -177774.0352 -177774.0352 0.0000 17158.3896 -4525.7071 534946.2959 17158.3896 -4525.7071
ENERGY: 960 189.2401 668.4142 2813.6674 0.0000 -205328.4537 23579.6827 30.8264 0.0000 0.0000 -178046.6228 0.0000 -178046.6228 -178046.6228 0.0000 17303.7502 -4447.4127 534946.2959 17303.7502 -4447.4127
ENERGY: 980 176.5393 652.9612 2811.3268 0.0000 -205749.4019 23758.9940 32.2063 0.0000 0.0000 -178317.3742 0.0000 -178317.3742 -178317.3742 0.0000 17376.5060 -4417.7720 534946.2959 17376.5060 -4417.7720
ENERGY: 1000 181.2852 653.9873 2808.3169 0.0000 -206209.3810 23991.3037 34.0597 0.0000 0.0000 -178540.4282 0.0000 -178540.4282 -178540.4282 0.0000 17481.7262 -4364.6406 534946.2959 17481.7262 -4364.6406
TCL: Setting parameter constraintScaling to 0
TCL: Minimizing for 5000 steps
ETITLE: TS BOND ANGLE DIHED IMPRP ELECT VDW BOUNDARY MISC KINETIC TOTAL TEMP POTENTIAL TOTAL3 TEMPAVG PRESSURE GPRESSURE VOLUME PRESSAVG GPRESSAVG
ENERGY: 1000 181.2852 653.9873 2808.3169 0.0000 -206209.3810 23991.3037 0.0000 0.0000 0.0000 -178574.4879 0.0000 -178574.4879 -178574.4879 0.0000 17507.9908 -27268.9700 534946.2959 17507.9908 -27268.9700
ENERGY: 2000 168.2058 661.7609 2801.4910 0.0000 -214861.0426 27806.4741 0.0000 0.0000 0.0000 -183423.1107 0.0000 -183423.1107 -183423.1107 0.0000 19534.5898 -3283.9477 534946.2959 19534.5898 -3283.9477
ENERGY: 3000 168.3019 666.2366 2800.0954 0.0000 -217356.5545 28828.8964 0.0000 0.0000 0.0000 -184893.0243 0.0000 -184893.0243 -184893.0243 0.0000 20086.3822 -2985.6085 534946.2959 20086.3822 -2985.6085
ENERGY: 4000 176.7052 666.0120 2793.1512 0.0000 -218801.9669 29401.8781 0.0000 0.0000 0.0000 -185764.2203 0.0000 -185764.2203 -185764.2203 0.0000 20385.5614 -2841.6433 534946.2959 20385.5614 -2841.6433
ENERGY: 5000 164.5074 662.4953 2791.2168 0.0000 -219554.8466 29748.7062 0.0000 0.0000 0.0000 -186187.9210 0.0000 -186187.9210 -186187.9210 0.0000 20578.0732 -2699.5835 534946.2959 20578.0732 -2699.5835
ENERGY: 6000 164.3704 664.4033 2790.7008 0.0000 -219946.8442 29908.2174 0.0000 0.0000 0.0000 -186419.1522 0.0000 -186419.1522 -186419.1522 0.0000 20660.9233 -2653.9883 534946.2959 20660.9233 -2653.9883
