Info: SIMULATION PARAMETERS:
Info: TIMESTEP               1
Info: NUMBER OF STEPS        0
Info: STEPS PER CYCLE        10
Info: PERIODIC CELL BASIS 1  72.449 0 0
Info: PERIODIC CELL BASIS 2  0 93.247 0
Info: PERIODIC CELL BASIS 3  0 0 79.185
Info: PERIODIC CELL CENTER   -0.248 -0.156 -0.047
Info: WRAPPING WATERS AROUND PERIODIC BOUNDARIES ON OUTPUT.
Info: WRAPPING ALL CLUSTERS AROUND PERIODIC BOUNDARIES ON OUTPUT.
Info: FIRST LDB TIMESTEP     50
Info: LAST LDB TIMESTEP     -1
Info: HOM BACKGROUND SCALING 1
Info: PME BACKGROUND SCALING 1
Info: MIN ATOMS PER PATCH    40
Info: VELOCITY FILE          ../replicas/rep13/equilibration/eq1.vel
Info: CENTER OF MASS MOVING INITIALLY? NO
Info: DIELECTRIC             1
Info: EXCLUDE                SCALED ONE-FOUR
Info: 1-4 ELECTROSTATICS SCALED BY 0.833333
Info: MODIFIED 1-4 VDW PARAMETERS WILL BE USED
Info: DCD FILENAME           ../replicas/rep13/equilibration/eq2.dcd
Info: DCD FREQUENCY          5000
Info: DCD FIRST STEP         5000
Info: DCD FILE WILL CONTAIN UNIT CELL DATA
Info: XST FILENAME           ../replicas/rep13/equilibration/eq2.xst
Info: XST FREQUENCY          5000
Info: NO VELOCITY DCD OUTPUT
Info: NO FORCE DCD OUTPUT
Info: OUTPUT FILENAME        ../replicas/rep13/equilibration/eq2
Info: RESTART FILENAME       ../replicas/rep13/equilibration/eq2.restart
Info: RESTART FREQUENCY      5000
Info: BINARY RESTART FILES WILL BE USED
Info: SWITCHING ACTIVE
Info: SWITCHING ON           10
Info: SWITCHING OFF          12
Info: PAIRLIST DISTANCE      13.5
Info: PAIRLIST SHRINK RATE   0.01
Info: PAIRLIST GROW RATE     0.01
Info: PAIRLIST TRIGGER       0.3
Info: PAIRLISTS PER CYCLE    2
Info: PAIRLISTS ENABLED
Info: MARGIN                 0.48
Info: HYDROGEN GROUP CUTOFF  2.5
Info: PATCH DIMENSION        16.48
Info: ENERGY OUTPUT STEPS    500
Info: CROSSTERM ENERGY INCLUDED IN DIHEDRAL
Info: TIMING OUTPUT STEPS    5000
Info: PRESSURE OUTPUT STEPS  500
Info: HARMONIC CONSTRAINTS ACTIVE
Info: HARMONIC CONS EXP      2
Info: HARMONIC CONS SCALING  10
Info: LANGEVIN DYNAMICS ACTIVE
Info: LANGEVIN TEMPERATURE   300
Info: LANGEVIN USING BBK INTEGRATOR
Info: LANGEVIN DAMPING COEFFICIENT IS 5 INVERSE PS
Info: LANGEVIN DYNAMICS NOT APPLIED TO HYDROGENS
Info: BERENDSEN PRESSURE COUPLING ACTIVE
Info:     TARGET PRESSURE IS 1 BAR
Info:     COMPRESSIBILITY ESTIMATE IS 4.57e-05 BAR^(-1)
Info:     RELAXATION TIME IS 100 FS
Info:     APPLIED EVERY 2 STEPS
Info:     PRESSURE CONTROL IS GROUP-BASED
Info:       CELL FLUCTUATION IS ISOTROPIC
Info: PARTICLE MESH EWALD (PME) ACTIVE
Info: PME TOLERANCE               1e-06
Info: PME EWALD COEFFICIENT       0.257952
Info: PME INTERPOLATION ORDER     4
Info: PME GRID DIMENSIONS         80 96 80
Info: PME MAXIMUM GRID SPACING    1
Info: FULL ELECTROSTATIC EVALUATION FREQUENCY      2
Info: USING VERLET I (r-RESPA) MTS SCHEME.
Info: C1 SPLITTING OF LONG RANGE ELECTROSTATICS
Info: PLACING ATOMS IN PATCHES BY HYDROGEN GROUPS
Info: RIGID BONDS TO HYDROGEN : WATER
Info:         ERROR TOLERANCE : 1e-05
Info:          MAX ITERATIONS : 100
Info: RIGID WATER USING SETTLE ALGORITHM
Info: RANDOM NUMBER SEED     1503709126
Info: USE HYDROGEN BONDS?    NO
Info: Using AMBER format force field!
Info: AMBER PARM FILE        ../build/complex.top
Info: COORDINATE PDB         ../replicas/rep13/equilibration/eq1.coor
Info: Exclusions in PARM file will be ignored!
Info: SCNB (VDW SCALING)     2
Info: USING ARITHMETIC MEAN TO COMBINE L-J SIGMA PARAMETERS
Info: SUMMARY OF PARAMETERS:
Info: 71 BONDS
Info: 145 ANGLES
Info: 76 DIHEDRAL
Info: 0 IMPROPER
Info: 0 CROSSTERM
Info: 0 VDW
Info: 190 VDW_PAIRS
Info: 0 NBTHOLE_PAIRS
Info: STRUCTURE SUMMARY:
Info: 49394 ATOMS
Info: 49448 BONDS
Info: 8698 ANGLES
Info: 18780 DIHEDRALS
Info: 0 IMPROPERS
Info: 0 CROSSTERMS
Info: 0 EXCLUSIONS
Info: 2336 CONSTRAINTS
Info: 44667 RIGID BONDS
Info: 103515 DEGREES OF FREEDOM
Info: 17225 HYDROGEN GROUPS
Info: 4 ATOMS IN LARGEST HYDROGEN GROUP
Info: 17225 MIGRATION GROUPS
Info: 4 ATOMS IN LARGEST MIGRATION GROUP
Info: TOTAL MASS = 301478 amu
Info: TOTAL CHARGE = 1.00115e-05 e
Info: MASS DENSITY = 0.935846 g/cm^3
Info: ATOM DENSITY = 0.0923345 atoms/A^3
Info: ADDED 70656 IMPLICIT EXCLUSIONS
Info: NONBONDED TABLE R-SQUARED SPACING: 0.0625
Info: NONBONDED TABLE SIZE: 769 POINTS
Info: REMOVING COM VELOCITY 0.00594629 0.0076892 0.0247661
TCL: Running for 5000 steps
ETITLE: TS BOND ANGLE DIHED IMPRP ELECT VDW BOUNDARY MISC KINETIC TOTAL TEMP POTENTIAL TOTAL3 TEMPAVG PRESSURE GPRESSURE VOLUME PRESSAVG GPRESSAVG
ENERGY: 0 382.0546 1220.0893 2905.6084 0.0000 -212673.3005 29454.0579 0.0000 0.0000 10020.8948 -168690.5954 97.4302 -178711.4902 -168681.0509 97.4302 -2345.0938 -2441.5608 534946.2959 -2345.0938 -2441.5608
ENERGY: 1000 1235.7225 1968.9785 3100.5065 0.0000 -193124.3912 26002.0128 768.0687 0.0000 24129.0043 -135920.0979 234.5992 -160049.1021 -135882.7842 218.0532 35.7399 -50.9441 522738.3593 -13.7713 -13.7108
ENERGY: 2000 1464.5403 2164.6210 3124.9911 0.0000 -184191.9307 23304.7467 825.8054 0.0000 27912.6487 -125394.5775 271.3864 -153307.2262 -125354.2997 263.8694 -36.9740 -34.4227 514631.9435 -34.7648 -34.2947
ENERGY: 3000 1514.2073 2281.9492 3132.0111 0.0000 -179032.6207 21561.6019 820.8039 0.0000 29726.3371 -119995.7101 289.0204 -149722.0472 -119947.4284 284.8964 -77.7723 9.9749 509490.1078 -10.3336 -10.3104
ENERGY: 4000 1567.5884 2213.8521 3116.2479 0.0000 -177126.0272 20896.3540 786.4552 0.0000 30584.1961 -117961.3334 297.3611 -148545.5295 -117922.3852 293.7997 -92.9200 -32.3363 506097.2441 -10.7111 -10.6875
ENERGY: 5000 1543.1003 2170.9684 3126.8133 0.0000 -175760.1312 20433.0492 792.1736 0.0000 30702.5941 -116991.4323 298.5123 -147694.0265 -116952.2848 297.1150 -59.0740 -28.7193 504517.4742 -10.4223 -10.1926
TCL: Setting parameter constraintScaling to 5.0
TCL: Running for 5000 steps
ETITLE: TS BOND ANGLE DIHED IMPRP ELECT VDW BOUNDARY MISC KINETIC TOTAL TEMP POTENTIAL TOTAL3 TEMPAVG PRESSURE GPRESSURE VOLUME PRESSAVG GPRESSAVG
ENERGY: 5000 1543.1003 2170.9684 3126.8133 0.0000 -175760.1312 20433.0492 396.0868 0.0000 30700.5405 -117389.5728 298.4923 -148090.1132 -117344.0242 298.4923 -60.9285 -32.0778 504517.4742 -60.9285 -32.0778
ENERGY: 6000 1565.2211 2296.3439 3151.9786 0.0000 -175193.1881 19969.5103 658.7321 0.0000 30611.0897 -116940.3123 297.6226 -147551.4020 -116902.2691 298.3834 94.8147 13.8629 502627.1469 8.0952 8.1906
ENERGY: 7000 1595.8922 2214.3920 3173.7159 0.0000 -176077.4120 20384.3683 639.2324 0.0000 30872.5492 -117197.2620 300.1647 -148069.8112 -117151.6608 299.4203 -55.2820 -38.9044 501942.3814 -0.1965 0.3372
ENERGY: 8000 1637.4097 2332.8952 3145.4955 0.0000 -175600.1145 20133.8707 655.9920 0.0000 30831.6831 -116862.7683 299.7674 -147694.4514 -116822.1650 299.2144 -67.0939 -35.3856 501456.1825 7.2477 7.2668
ENERGY: 9000 1628.0443 2270.7718 3139.3540 0.0000 -175531.4752 20269.5697 634.2398 0.0000 30776.4747 -116813.0209 299.2306 -147589.4956 -116765.7900 300.3638 -156.4894 -33.0642 503341.4932 23.9556 24.1936
ENERGY: 10000 1604.7506 2273.9757 3174.0483 0.0000 -175636.7568 20332.7519 640.7107 0.0000 30922.2947 -116688.2250 300.6483 -147610.5197 -116640.4378 300.4361 -145.4316 27.8087 502020.1597 -6.4285 -5.9598
TCL: Setting parameter constraintScaling to 2.5
TCL: Running for 5000 steps
ETITLE: TS BOND ANGLE DIHED IMPRP ELECT VDW BOUNDARY MISC KINETIC TOTAL TEMP POTENTIAL TOTAL3 TEMPAVG PRESSURE GPRESSURE VOLUME PRESSAVG GPRESSAVG
ENERGY: 10000 1604.7506 2273.9757 3174.0483 0.0000 -175636.7568 20332.7519 320.3553 0.0000 30920.2484 -117010.6266 300.6284 -147930.8750 -116966.9835 300.6284 -108.7520 58.9451 502020.1597 -108.7520 58.9451
ENERGY: 11000 1563.1320 2317.1332 3152.2225 0.0000 -175738.8624 20150.0707 503.2729 0.0000 30819.0957 -117233.9355 299.6450 -148053.0312 -117184.9895 299.3482 4.9608 40.6109 501494.3540 4.6622 4.6027
ENERGY: 12000 1578.7486 2340.6135 3169.6390 0.0000 -175180.5912 19983.2714 515.7586 0.0000 30962.3987 -116630.1614 301.0383 -147592.5601 -116591.6457 299.5810 -50.4791 -83.9779 501123.9650 4.7184 4.5209
ENERGY: 13000 1608.6527 2285.1508 3175.8018 0.0000 -175384.2567 20100.8308 502.0258 0.0000 30753.3788 -116958.4160 299.0060 -147711.7948 -116915.6185 298.7789 -85.7864 -6.3576 500499.8134 -1.3756 -1.3924
ENERGY: 14000 1630.2596 2371.8570 3167.6563 0.0000 -175442.2898 20035.0223 510.0425 0.0000 30778.3461 -116949.1060 299.2488 -147727.4521 -116909.0105 299.5280 7.0408 -1.7237 499651.7217 7.6359 7.8048
ENERGY: 15000 1563.0037 2290.6205 3159.1066 0.0000 -175150.6269 19930.9041 495.6308 0.0000 30673.1005 -117038.2607 298.2255 -147711.3612 -116989.5370 299.0817 -69.2467 -36.6784 500129.0312 3.7806 3.5034
TCL: Setting parameter constraintScaling to 1.25
TCL: Running for 5000 steps
ETITLE: TS BOND ANGLE DIHED IMPRP ELECT VDW BOUNDARY MISC KINETIC TOTAL TEMP POTENTIAL TOTAL3 TEMPAVG PRESSURE GPRESSURE VOLUME PRESSAVG GPRESSAVG
ENERGY: 15000 1563.0037 2290.6205 3159.1066 0.0000 -175150.6269 19930.9041 247.8154 0.0000 30671.0827 -117288.0939 298.2059 -147959.1766 -117245.2510 298.2059 -99.4856 -70.6135 500129.0312 -99.4856 -70.6135
ENERGY: 16000 1661.6997 2345.9447 3190.2874 0.0000 -175854.4444 20054.6278 413.9545 0.0000 30880.1313 -117307.7991 300.2384 -148187.9305 -117269.3314 299.2444 -20.5803 7.3339 497988.9260 -12.4491 -12.5041
ENERGY: 17000 1573.8181 2311.7728 3184.0003 0.0000 -176018.5167 20130.5184 419.4827 0.0000 30585.4981 -117813.4261 297.3738 -148398.9242 -117761.5874 298.1076 34.1047 88.2965 498552.6651 6.5641 6.9158
ENERGY: 18000 1621.8552 2308.0987 3196.8419 0.0000 -176482.5596 20299.4455 400.2184 0.0000 30648.5575 -118007.5425 297.9869 -148656.1000 -117965.2744 298.3233 -59.7742 7.1743 496610.9310 -14.1773 -14.1700
ENERGY: 19000 1579.5010 2386.7623 3174.9612 0.0000 -176236.0487 20189.6454 407.2531 0.0000 30822.5423 -117675.3834 299.6785 -148497.9256 -117636.1972 298.5482 -62.0140 -56.3873 498853.3848 2.8989 2.3498
ENERGY: 20000 1636.4001 2346.8034 3205.3209 0.0000 -175854.6001 19915.8664 432.6518 0.0000 30974.7983 -117342.7591 301.1588 -148317.5574 -117296.6851 300.2139 -24.6396 -55.2691 498149.0779 -4.9326 -5.1942
TCL: Setting parameter constraintScaling to 0.625
TCL: Running for 5000 steps
ETITLE: TS BOND ANGLE DIHED IMPRP ELECT VDW BOUNDARY MISC KINETIC TOTAL TEMP POTENTIAL TOTAL3 TEMPAVG PRESSURE GPRESSURE VOLUME PRESSAVG GPRESSAVG
ENERGY: 20000 1636.4001 2346.8034 3205.3209 0.0000 -175854.6001 19915.8664 216.3259 0.0000 30972.7494 -117561.1340 301.1389 -148533.8833 -117511.7440 301.1389 -78.6477 -114.3829 498149.0779 -78.6477 -114.3829
ENERGY: 21000 1645.1552 2414.8544 3190.6283 0.0000 -175500.7790 19733.7967 320.4913 0.0000 30703.3778 -117492.4753 298.5199 -148195.8531 -117435.8149 299.0186 -70.0900 -38.2135 498308.2046 2.8896 2.3070
ENERGY: 22000 1651.5720 2378.7407 3170.3698 0.0000 -176111.7603 20290.0398 321.6006 0.0000 30856.6738 -117442.7636 300.0103 -148299.4375 -117407.0441 299.2363 -60.9220 1.4437 497847.5001 -3.1815 -3.2041
ENERGY: 23000 1621.6061 2398.3574 3192.4413 0.0000 -175758.1122 20025.6648 311.3740 0.0000 30681.6032 -117527.0655 298.3082 -148208.6687 -117487.9141 299.5314 171.9101 93.7483 498896.6958 8.7985 8.4220
ENERGY: 24000 1565.4822 2370.2909 3222.8133 0.0000 -175942.0804 20034.4836 329.2698 0.0000 30747.4957 -117672.2449 298.9488 -148419.7406 -117616.2823 298.6233 -38.8135 -41.4612 498577.3992 -0.5549 -0.9963
ENERGY: 25000 1629.1918 2351.3599 3194.0862 0.0000 -175736.6179 19961.7637 322.0402 0.0000 30837.7262 -117440.4499 299.8261 -148278.1761 -117399.8960 299.0454 -31.1973 -22.5616 498942.2102 3.3414 3.7497
TCL: Setting parameter constraintScaling to 0.3125
TCL: Running for 5000 steps
ETITLE: TS BOND ANGLE DIHED IMPRP ELECT VDW BOUNDARY MISC KINETIC TOTAL TEMP POTENTIAL TOTAL3 TEMPAVG PRESSURE GPRESSURE VOLUME PRESSAVG GPRESSAVG
ENERGY: 25000 1629.1918 2351.3599 3194.0862 0.0000 -175736.6179 19961.7637 161.0201 0.0000 30835.6904 -117603.5057 299.8063 -148439.1962 -117561.8033 299.8063 -58.9232 -49.7484 498942.2102 -58.9232 -49.7484
ENERGY: 26000 1605.2277 2411.1317 3219.1545 0.0000 -175904.1257 19901.3070 237.7865 0.0000 30825.5411 -117703.9772 299.7076 -148529.5184 -117654.9495 298.1780 13.0615 -46.0548 497584.6744 -0.4327 -0.2460
ENERGY: 27000 1615.3637 2368.3598 3202.8128 0.0000 -175782.2158 20048.0386 262.4889 0.0000 30584.4017 -117700.7503 297.3631 -148285.1521 -117653.2010 298.1509 40.2469 12.6124 497985.3159 -3.9317 -3.9244
ENERGY: 28000 1607.1853 2411.2832 3206.9105 0.0000 -175700.3847 20119.4618 255.8507 0.0000 30791.5713 -117308.1219 299.3774 -148099.6932 -117257.6590 298.8827 -67.7215 -7.2251 499348.1562 14.4242 14.5881
ENERGY: 29000 1615.8055 2398.9117 3249.0648 0.0000 -176514.0740 20327.2638 249.4896 0.0000 31050.0833 -117623.4553 301.8908 -148673.5386 -117567.9703 299.0139 -92.7359 -4.8389 497683.6445 -0.0177 0.3902
ENERGY: 30000 1629.5500 2347.7170 3204.2084 0.0000 -176391.6232 20374.9200 253.0657 0.0000 30490.3244 -118091.8376 296.4484 -148582.1620 -118053.6561 298.0299 -17.9434 17.1620 495955.5625 -3.2120 -2.7384
TCL: Setting parameter constraintScaling to 0.15625
TCL: Running for 5000 steps
ETITLE: TS BOND ANGLE DIHED IMPRP ELECT VDW BOUNDARY MISC KINETIC TOTAL TEMP POTENTIAL TOTAL3 TEMPAVG PRESSURE GPRESSURE VOLUME PRESSAVG GPRESSAVG
ENERGY: 30000 1629.5500 2347.7170 3204.2084 0.0000 -176391.6232 20374.9200 126.5328 0.0000 30488.2816 -118220.4133 296.4286 -148708.6949 -118173.0177 296.4286 2.5037 35.6957 495955.5625 2.5037 35.6957
ENERGY: 31000 1672.5211 2391.8535 3192.2089 0.0000 -176331.4518 20231.2485 183.5666 0.0000 30707.4658 -117952.5875 298.5596 -148660.0533 -117903.9074 298.9788 -56.2598 -2.0141 496651.7584 17.8662 17.9360
ENERGY: 32000 1546.0098 2390.4809 3192.3931 0.0000 -176128.0395 20260.2189 191.8600 0.0000 30608.2777 -117938.7991 297.5952 -148547.0769 -117888.2822 298.1372 -33.8301 -2.9561 496885.6076 3.2324 2.6818
ENERGY: 33000 1584.5570 2435.2175 3262.2798 0.0000 -176006.1419 20098.6542 214.0543 0.0000 30814.1416 -117597.2375 299.5968 -148411.3791 -117552.0556 299.2436 -52.1145 -2.2839 497316.4677 2.5186 1.8184
ENERGY: 34000 1659.0145 2376.8788 3215.3840 0.0000 -175700.4290 19986.6114 214.8137 0.0000 30787.5392 -117460.1873 299.3382 -148247.7265 -117407.4198 299.4288 110.4491 49.1353 497169.7652 -0.3117 -0.8982
ENERGY: 35000 1651.0191 2436.9034 3189.5055 0.0000 -176131.2285 20231.9765 202.3275 0.0000 31079.1887 -117340.3077 302.1738 -148419.4965 -117288.5122 299.6771 63.9315 35.3935 497448.7726 6.0639 5.9273
TCL: Setting parameter constraintScaling to 0.078125
TCL: Running for 5000 steps
ETITLE: TS BOND ANGLE DIHED IMPRP ELECT VDW BOUNDARY MISC KINETIC TOTAL TEMP POTENTIAL TOTAL3 TEMPAVG PRESSURE GPRESSURE VOLUME PRESSAVG GPRESSAVG
ENERGY: 35000 1651.0191 2436.9034 3189.5055 0.0000 -176131.2285 20231.9765 101.1638 0.0000 31077.1649 -117443.4953 302.1541 -148520.6602 -117402.3642 302.1541 81.7457 48.5884 497448.7726 81.7457 48.5884
ENERGY: 36000 1644.7656 2427.2989 3206.6571 0.0000 -176139.2823 20063.5083 136.8603 0.0000 30711.1523 -117949.0398 298.5955 -148660.1921 -117905.8210 299.7456 -2.5260 22.4120 495160.1902 -15.1337 -15.3772
ENERGY: 37000 1640.2451 2421.2991 3209.0553 0.0000 -176222.9336 20177.9281 152.1539 0.0000 30625.4219 -117996.8303 297.7619 -148622.2522 -117954.0415 298.3188 -47.9647 81.1507 496734.0327 24.4161 24.5684
ENERGY: 38000 1629.0505 2366.1217 3238.2991 0.0000 -175642.8998 19901.9239 163.4479 0.0000 30644.1490 -117699.9077 297.9440 -148344.0567 -117663.9983 299.8835 -17.8686 -6.3566 497094.6158 7.6535 8.1396
ENERGY: 39000 1619.6716 2350.6745 3177.8558 0.0000 -175662.2817 20125.4887 173.8553 0.0000 30598.0262 -117616.7096 297.4956 -148214.7358 -117567.1193 299.4688 94.9661 90.5668 496921.4602 3.3304 2.9313
ENERGY: 40000 1668.9177 2373.8320 3185.3342 0.0000 -175828.4161 20204.7068 152.6146 0.0000 30822.7640 -117420.2468 299.6806 -148243.0108 -117381.5185 300.1247 -35.2908 -38.5067 498389.7781 8.0124 8.2079
TCL: Setting parameter constraintScaling to 0.0390625
TCL: Running for 5000 steps
ETITLE: TS BOND ANGLE DIHED IMPRP ELECT VDW BOUNDARY MISC KINETIC TOTAL TEMP POTENTIAL TOTAL3 TEMPAVG PRESSURE GPRESSURE VOLUME PRESSAVG GPRESSAVG
ENERGY: 40000 1668.9177 2373.8320 3185.3342 0.0000 -175828.4160 20204.7068 76.3073 0.0000 30820.7399 -117498.5782 299.6610 -148319.3181 -117451.0134 299.6610 -42.1814 -40.0554 498389.7781 -42.1814 -40.0554
ENERGY: 41000 1620.4211 2388.5161 3181.0397 0.0000 -175973.5443 20207.5214 119.3157 0.0000 30760.7751 -117695.9552 299.0779 -148456.7302 -117646.6694 300.3632 97.6817 136.4413 497010.7536 -6.5875 -6.6958
ENERGY: 42000 1682.8547 2367.3480 3227.3546 0.0000 -175917.0106 20055.1716 115.2732 0.0000 30617.6520 -117851.3564 297.6864 -148469.0084 -117807.1953 298.6494 -48.5256 -16.3588 497394.0957 -1.7236 -1.7320
ENERGY: 43000 1628.7054 2367.7013 3184.0319 0.0000 -176214.9926 20176.2706 130.5931 0.0000 30768.6385 -117959.0519 299.1544 -148727.6904 -117912.2172 299.0959 128.3283 100.9294 496998.0338 -7.7240 -7.4361
ENERGY: 44000 1649.9740 2361.9623 3221.7339 0.0000 -175815.2733 20044.0270 134.1397 0.0000 30888.0166 -117515.4197 300.3151 -148403.4363 -117470.3643 299.4644 -44.6623 -24.1798 497664.4015 -3.0155 -2.9987
ENERGY: 45000 1591.2619 2397.4633 3240.3103 0.0000 -175639.9497 19822.7893 127.6315 0.0000 30842.7225 -117617.7708 299.8747 -148460.4933 -117570.2477 298.5782 -119.2940 -53.3964 497705.4323 -1.5226 -0.7405
TCL: Setting parameter constraintScaling to 0.01953125
TCL: Running for 5000 steps
ETITLE: TS BOND ANGLE DIHED IMPRP ELECT VDW BOUNDARY MISC KINETIC TOTAL TEMP POTENTIAL TOTAL3 TEMPAVG PRESSURE GPRESSURE VOLUME PRESSAVG GPRESSAVG
ENERGY: 45000 1591.2619 2397.4633 3240.3103 0.0000 -175639.9497 19822.7893 63.8157 0.0000 30840.6810 -117683.6280 299.8548 -148524.3090 -117641.7340 299.8548 -123.7057 -62.9529 497705.4323 -123.7057 -62.9529
ENERGY: 46000 1642.5690 2350.4816 3193.7407 0.0000 -176146.4880 20107.7144 83.7500 0.0000 30653.1708 -118115.0615 298.0317 -148768.2323 -118069.1649 298.9840 -46.8132 26.6098 498019.4634 4.5737 4.8510
ENERGY: 47000 1586.6475 2370.5274 3190.2688 0.0000 -176277.3274 20082.0468 85.6492 0.0000 30900.2089 -118061.9789 300.4336 -148962.1878 -118015.5463 298.5658 5.4673 83.3359 497757.2944 8.6989 8.6429
ENERGY: 48000 1618.6492 2397.7477 3198.2078 0.0000 -176258.6115 20114.8116 96.2311 0.0000 30720.7833 -118112.1808 298.6891 -148832.9641 -118072.1192 299.2497 -59.4083 -136.0907 497818.1659 -8.7668 -9.3359
ENERGY: 49000 1671.4550 2374.3165 3172.2409 0.0000 -176600.6425 20315.0857 92.8235 0.0000 30762.8198 -118211.9011 299.0978 -148974.7210 -118160.5404 297.9582 -48.9601 24.3572 496261.3580 0.6774 0.9601
ENERGY: 50000 1619.0693 2403.8415 3195.9944 0.0000 -176202.3647 20152.0307 99.1983 0.0000 30706.0184 -118026.2120 298.5456 -148732.2304 -117984.8667 298.8563 -57.1837 -18.5714 496532.9446 -0.0534 -0.7555
TCL: Setting parameter constraintScaling to 0
TCL: Running for 5000 steps
ETITLE: TS BOND ANGLE DIHED IMPRP ELECT VDW BOUNDARY MISC KINETIC TOTAL TEMP POTENTIAL TOTAL3 TEMPAVG PRESSURE GPRESSURE VOLUME PRESSAVG GPRESSAVG
ENERGY: 50000 1619.0693 2403.8415 3195.9944 0.0000 -176202.3647 20152.0307 0.0000 0.0000 30703.9641 -118127.4646 298.5256 -148831.4287 -118084.0213 298.5256 -72.0131 -33.2924 496532.9446 -72.0131 -33.2924
ENERGY: 51000 1649.2911 2412.0546 3189.1819 0.0000 -176148.9118 19965.0079 0.0000 0.0000 30612.2645 -118321.1118 297.6340 -148933.3763 -118283.6730 298.7035 -67.9228 -45.8607 494699.3605 -5.9615 -6.0563
ENERGY: 52000 1622.6644 2384.3996 3175.4598 0.0000 -176082.4994 20171.2969 0.0000 0.0000 30690.3793 -118038.2993 298.3935 -148728.6787 -117994.7855 299.7853 11.9397 24.2623 496652.6650 4.7959 4.7319
ENERGY: 53000 1614.9847 2392.2424 3211.8791 0.0000 -175688.1950 19977.2071 0.0000 0.0000 30733.6030 -117758.2787 298.8137 -148491.8817 -117710.4258 300.3038 -26.3304 23.4284 496354.5388 -3.1488 -3.4708
ENERGY: 54000 1652.3430 2431.7771 3166.4846 0.0000 -175728.9674 19904.3824 0.0000 0.0000 30936.2748 -117637.7055 300.7843 -148573.9803 -117593.7658 300.2187 -115.3739 -101.6600 497300.6229 -7.9155 -7.9489
ENERGY: 55000 1650.7910 2433.5582 3220.0514 0.0000 -176176.1645 20114.0636 0.0000 0.0000 30695.4711 -118062.2291 298.4430 -148757.7002 -118019.1707 299.5908 34.1286 51.7988 496301.8572 4.5818 4.7144
