Info: SIMULATION PARAMETERS:
Info: TIMESTEP               1
Info: NUMBER OF STEPS        0
Info: STEPS PER CYCLE        10
Info: PERIODIC CELL BASIS 1  72.449 0 0
Info: PERIODIC CELL BASIS 2  0 93.247 0
Info: PERIODIC CELL BASIS 3  0 0 79.185
Info: PERIODIC CELL CENTER   -0.248 -0.156 -0.047
Info: WRAPPING WATERS AROUND PERIODIC BOUNDARIES ON OUTPUT.
Info: WRAPPING ALL CLUSTERS AROUND PERIODIC BOUNDARIES ON OUTPUT.
Info: FIRST LDB TIMESTEP     50
Info: LAST LDB TIMESTEP     -1
Info: HOM BACKGROUND SCALING 1
Info: PME BACKGROUND SCALING 1
Info: MIN ATOMS PER PATCH    40
Info: VELOCITY FILE          ../replicas/rep3/equilibration/eq1.vel
Info: CENTER OF MASS MOVING INITIALLY? NO
Info: DIELECTRIC             1
Info: EXCLUDE                SCALED ONE-FOUR
Info: 1-4 ELECTROSTATICS SCALED BY 0.833333
Info: MODIFIED 1-4 VDW PARAMETERS WILL BE USED
Info: DCD FILENAME           ../replicas/rep3/equilibration/eq2.dcd
Info: DCD FREQUENCY          5000
Info: DCD FIRST STEP         5000
Info: DCD FILE WILL CONTAIN UNIT CELL DATA
Info: XST FILENAME           ../replicas/rep3/equilibration/eq2.xst
Info: XST FREQUENCY          5000
Info: NO VELOCITY DCD OUTPUT
Info: NO FORCE DCD OUTPUT
Info: OUTPUT FILENAME        ../replicas/rep3/equilibration/eq2
Info: RESTART FILENAME       ../replicas/rep3/equilibration/eq2.restart
Info: RESTART FREQUENCY      5000
Info: BINARY RESTART FILES WILL BE USED
Info: SWITCHING ACTIVE
Info: SWITCHING ON           10
Info: SWITCHING OFF          12
Info: PAIRLIST DISTANCE      13.5
Info: PAIRLIST SHRINK RATE   0.01
Info: PAIRLIST GROW RATE     0.01
Info: PAIRLIST TRIGGER       0.3
Info: PAIRLISTS PER CYCLE    2
Info: PAIRLISTS ENABLED
Info: MARGIN                 0.48
Info: HYDROGEN GROUP CUTOFF  2.5
Info: PATCH DIMENSION        16.48
Info: ENERGY OUTPUT STEPS    500
Info: CROSSTERM ENERGY INCLUDED IN DIHEDRAL
Info: TIMING OUTPUT STEPS    5000
Info: PRESSURE OUTPUT STEPS  500
Info: HARMONIC CONSTRAINTS ACTIVE
Info: HARMONIC CONS EXP      2
Info: HARMONIC CONS SCALING  10
Info: LANGEVIN DYNAMICS ACTIVE
Info: LANGEVIN TEMPERATURE   300
Info: LANGEVIN USING BBK INTEGRATOR
Info: LANGEVIN DAMPING COEFFICIENT IS 5 INVERSE PS
Info: LANGEVIN DYNAMICS NOT APPLIED TO HYDROGENS
Info: BERENDSEN PRESSURE COUPLING ACTIVE
Info:     TARGET PRESSURE IS 1 BAR
Info:     COMPRESSIBILITY ESTIMATE IS 4.57e-05 BAR^(-1)
Info:     RELAXATION TIME IS 100 FS
Info:     APPLIED EVERY 2 STEPS
Info:     PRESSURE CONTROL IS GROUP-BASED
Info:       CELL FLUCTUATION IS ISOTROPIC
Info: PARTICLE MESH EWALD (PME) ACTIVE
Info: PME TOLERANCE               1e-06
Info: PME EWALD COEFFICIENT       0.257952
Info: PME INTERPOLATION ORDER     4
Info: PME GRID DIMENSIONS         80 96 80
Info: PME MAXIMUM GRID SPACING    1
Info: FULL ELECTROSTATIC EVALUATION FREQUENCY      2
Info: USING VERLET I (r-RESPA) MTS SCHEME.
Info: C1 SPLITTING OF LONG RANGE ELECTROSTATICS
Info: PLACING ATOMS IN PATCHES BY HYDROGEN GROUPS
Info: RIGID BONDS TO HYDROGEN : WATER
Info:         ERROR TOLERANCE : 1e-05
Info:          MAX ITERATIONS : 100
Info: RIGID WATER USING SETTLE ALGORITHM
Info: RANDOM NUMBER SEED     1503257787
Info: USE HYDROGEN BONDS?    NO
Info: Using AMBER format force field!
Info: AMBER PARM FILE        ../build/complex.top
Info: COORDINATE PDB         ../replicas/rep3/equilibration/eq1.coor
Info: Exclusions in PARM file will be ignored!
Info: SCNB (VDW SCALING)     2
Info: USING ARITHMETIC MEAN TO COMBINE L-J SIGMA PARAMETERS
Info: SUMMARY OF PARAMETERS:
Info: 71 BONDS
Info: 145 ANGLES
Info: 76 DIHEDRAL
Info: 0 IMPROPER
Info: 0 CROSSTERM
Info: 0 VDW
Info: 190 VDW_PAIRS
Info: 0 NBTHOLE_PAIRS
Info: STRUCTURE SUMMARY:
Info: 49394 ATOMS
Info: 49448 BONDS
Info: 8698 ANGLES
Info: 18780 DIHEDRALS
Info: 0 IMPROPERS
Info: 0 CROSSTERMS
Info: 0 EXCLUSIONS
Info: 2336 CONSTRAINTS
Info: 44667 RIGID BONDS
Info: 103515 DEGREES OF FREEDOM
Info: 17225 HYDROGEN GROUPS
Info: 4 ATOMS IN LARGEST HYDROGEN GROUP
Info: 17225 MIGRATION GROUPS
Info: 4 ATOMS IN LARGEST MIGRATION GROUP
Info: TOTAL MASS = 301478 amu
Info: TOTAL CHARGE = 1.00115e-05 e
Info: MASS DENSITY = 0.935846 g/cm^3
Info: ATOM DENSITY = 0.0923345 atoms/A^3
Info: ADDED 70656 IMPLICIT EXCLUSIONS
Info: NONBONDED TABLE R-SQUARED SPACING: 0.0625
Info: NONBONDED TABLE SIZE: 769 POINTS
Info: REMOVING COM VELOCITY -0.0174629 -0.0110661 -0.0046902
TCL: Running for 5000 steps
ETITLE: TS BOND ANGLE DIHED IMPRP ELECT VDW BOUNDARY MISC KINETIC TOTAL TEMP POTENTIAL TOTAL3 TEMPAVG PRESSURE GPRESSURE VOLUME PRESSAVG GPRESSAVG
ENERGY: 0 395.4138 1209.2652 2913.1159 0.0000 -212951.4738 29695.5386 0.0000 0.0000 10090.2165 -168647.9239 98.1042 -178738.1403 -168638.2930 98.1042 -2365.7216 -2469.3353 534946.2959 -2365.7216 -2469.3353
ENERGY: 1000 1240.1674 1977.1672 3107.5292 0.0000 -194011.2188 26689.2450 765.4840 0.0000 24011.1165 -136220.5096 233.4530 -160231.6260 -136185.6144 217.8243 28.9871 11.9922 520414.8671 -21.9875 -21.9320
ENERGY: 2000 1472.6735 2130.8963 3121.9997 0.0000 -184133.1636 23377.3755 808.3320 0.0000 27850.7387 -125371.1478 270.7845 -153221.8865 -125331.6050 264.6017 -64.9864 0.9404 514473.3856 -24.9509 -25.2028
ENERGY: 3000 1462.4780 2221.4143 3142.2872 0.0000 -179418.7016 21668.1749 816.6645 0.0000 29706.6858 -120400.9968 288.8293 -150107.6827 -120355.9361 284.3897 -66.1841 -22.8434 509448.6461 -23.7152 -23.7010
ENERGY: 4000 1481.5592 2241.6340 3161.6695 0.0000 -176975.4578 20747.7212 796.0257 0.0000 30290.6399 -118256.2082 294.5069 -148546.8482 -118211.6198 292.0929 -40.3242 -11.6193 506375.2421 -5.3096 -5.4994
ENERGY: 5000 1579.6509 2261.3848 3120.8960 0.0000 -176162.4233 20710.4791 818.8441 0.0000 30484.8068 -117186.3614 296.3948 -147671.1683 -117140.3846 297.6350 -99.6594 -10.3829 505253.0385 -14.3648 -13.9790
TCL: Setting parameter constraintScaling to 5.0
TCL: Running for 5000 steps
ETITLE: TS BOND ANGLE DIHED IMPRP ELECT VDW BOUNDARY MISC KINETIC TOTAL TEMP POTENTIAL TOTAL3 TEMPAVG PRESSURE GPRESSURE VOLUME PRESSAVG GPRESSAVG
ENERGY: 5000 1579.6509 2261.3848 3120.8960 0.0000 -176162.4233 20710.4791 409.4221 0.0000 30482.7764 -117597.8140 296.3750 -148080.5903 -117553.3125 296.3750 -156.1425 -57.5039 505253.0385 -156.1425 -57.5039
ENERGY: 6000 1648.1133 2282.1067 3149.0614 0.0000 -176008.8418 20466.4278 636.5243 0.0000 30503.9632 -117322.6451 296.5810 -147826.6083 -117277.5292 296.7650 -32.2033 37.0045 505412.4092 -1.9662 -2.1803
ENERGY: 7000 1550.2103 2301.5114 3154.3811 0.0000 -175568.0308 20159.4283 661.0983 0.0000 30776.9478 -116964.4536 299.2352 -147741.4014 -116916.3160 297.9511 -95.9292 -30.9613 504216.2013 -12.4634 -12.3009
ENERGY: 8000 1643.7031 2265.8093 3149.7536 0.0000 -175674.1671 20364.7901 655.9301 0.0000 30914.0665 -116680.1143 300.5683 -147594.1809 -116635.8084 300.0364 -40.5355 -22.1361 501870.4273 -7.3685 -7.5825
ENERGY: 9000 1580.1386 2343.1489 3161.3047 0.0000 -175818.3653 20467.9829 644.5074 0.0000 30658.8727 -116962.4102 298.0872 -147621.2829 -116917.8486 299.2595 -104.3398 31.8561 501724.1687 -10.7707 -10.7010
ENERGY: 10000 1608.9985 2341.7444 3163.0360 0.0000 -175470.1240 20012.0908 633.6087 0.0000 30891.2135 -116819.4321 300.3461 -147710.6456 -116783.3333 299.8069 0.5278 33.8672 501844.7374 0.7685 0.8667
TCL: Setting parameter constraintScaling to 2.5
TCL: Running for 5000 steps
ETITLE: TS BOND ANGLE DIHED IMPRP ELECT VDW BOUNDARY MISC KINETIC TOTAL TEMP POTENTIAL TOTAL3 TEMPAVG PRESSURE GPRESSURE VOLUME PRESSAVG GPRESSAVG
ENERGY: 10000 1608.9985 2341.7444 3163.0360 0.0000 -175470.1240 20012.0908 316.8044 0.0000 30889.1547 -117138.2953 300.3261 -148027.4500 -117096.8857 300.3261 -69.6724 -36.7886 501844.7374 -69.6724 -36.7886
ENERGY: 11000 1592.7475 2321.4697 3195.1999 0.0000 -175600.3174 20122.1631 514.4124 0.0000 30685.5963 -117168.7284 298.3470 -147854.3248 -117123.5648 298.7469 -31.6778 11.1442 500690.2008 -2.3579 -2.1127
ENERGY: 12000 1680.8369 2260.9717 3183.0919 0.0000 -175686.9230 20159.6806 529.0206 0.0000 30760.2164 -117113.1049 299.0725 -147873.3213 -117071.3448 299.1990 -0.5771 -16.9422 500381.8415 5.6430 5.2002
ENERGY: 13000 1569.8986 2268.5647 3190.4148 0.0000 -175669.2502 20129.0063 508.8599 0.0000 30584.1374 -117418.3685 297.3605 -148002.5059 -117376.8431 299.7369 -41.9963 4.0707 499324.5419 5.4453 4.9464
ENERGY: 14000 1623.2091 2352.9373 3164.1940 0.0000 -175398.6179 19755.7238 515.5662 0.0000 30732.9090 -117254.0786 298.8070 -147986.9877 -117215.5819 298.3699 -72.1023 -29.0943 501182.8235 12.1169 12.0015
ENERGY: 15000 1612.4027 2359.5621 3175.4819 0.0000 -175518.9684 20148.2195 532.1190 0.0000 30739.8398 -116951.3433 298.8744 -147691.1831 -116904.3352 301.1035 2.4498 7.8995 500538.6675 -2.0556 -1.7026
TCL: Setting parameter constraintScaling to 1.25
TCL: Running for 5000 steps
ETITLE: TS BOND ANGLE DIHED IMPRP ELECT VDW BOUNDARY MISC KINETIC TOTAL TEMP POTENTIAL TOTAL3 TEMPAVG PRESSURE GPRESSURE VOLUME PRESSAVG GPRESSAVG
ENERGY: 15000 1612.4027 2359.5621 3175.4819 0.0000 -175518.9684 20148.2195 266.0595 0.0000 30737.7785 -117219.4641 298.8543 -147957.2426 -117175.2209 298.8543 9.0792 6.3977 500538.6675 9.0792 6.3977
ENERGY: 16000 1629.9321 2379.0362 3170.4465 0.0000 -175421.5436 20020.2365 415.9344 0.0000 31103.0077 -116702.9502 302.4054 -147805.9580 -116654.8838 299.9650 -72.7029 -27.4057 499924.9964 -0.8188 -0.7298
ENERGY: 17000 1603.9519 2429.5709 3170.2786 0.0000 -175239.7883 19861.6213 400.6402 0.0000 30895.3385 -116878.3868 300.3863 -147773.7253 -116841.1748 299.8279 -128.7921 -63.8497 499578.8557 -0.4355 -0.3346
ENERGY: 18000 1614.5726 2431.6101 3204.0089 0.0000 -175535.2084 19906.9780 394.7909 0.0000 30760.9533 -117222.2945 299.0797 -147983.2478 -117191.5088 299.1525 -131.5864 -31.9936 499782.9674 -4.6660 -4.2285
ENERGY: 19000 1594.4293 2369.0355 3194.0328 0.0000 -175698.8728 19984.3821 389.1963 0.0000 30792.5003 -117375.2963 299.3864 -148167.7967 -117333.7415 299.3329 141.2780 101.8010 499556.6800 -1.0484 -0.9594
ENERGY: 20000 1622.4041 2344.7996 3185.2710 0.0000 -175983.5970 20054.7476 395.0991 0.0000 30858.8001 -117522.4755 300.0310 -148381.2756 -117482.2987 298.7737 -8.6341 -49.6719 497451.4973 -7.7332 -7.4079
TCL: Setting parameter constraintScaling to 0.625
TCL: Running for 5000 steps
ETITLE: TS BOND ANGLE DIHED IMPRP ELECT VDW BOUNDARY MISC KINETIC TOTAL TEMP POTENTIAL TOTAL3 TEMPAVG PRESSURE GPRESSURE VOLUME PRESSAVG GPRESSAVG
ENERGY: 20000 1622.4041 2344.7996 3185.2710 0.0000 -175983.5969 20054.7476 197.5496 0.0000 30856.7488 -117722.0763 300.0111 -148578.8251 -117677.7733 300.0111 -28.6537 -73.0105 497451.4973 -28.6537 -73.0105
ENERGY: 21000 1657.1912 2366.0718 3216.0834 0.0000 -175998.1573 20229.0293 299.5673 0.0000 30644.7971 -117585.4171 297.9503 -148230.2142 -117546.2894 298.9769 -83.4578 15.0265 498447.6799 13.5251 13.4932
ENERGY: 22000 1575.7154 2355.6003 3219.5090 0.0000 -176094.6895 20280.1251 309.9300 0.0000 30841.9883 -117511.8213 299.8675 -148353.8097 -117470.5308 298.2479 59.6087 46.8503 498358.4310 -2.7999 -2.3504
ENERGY: 23000 1625.0104 2315.6886 3220.1016 0.0000 -175430.0982 19894.1966 309.6940 0.0000 30712.3964 -117353.0105 298.6076 -148065.4069 -117313.3183 298.3674 -174.7327 -29.0632 497922.2410 2.8395 2.7565
ENERGY: 24000 1562.4523 2434.3650 3200.5355 0.0000 -176179.8819 20342.3081 305.3359 0.0000 30941.2980 -117393.5870 300.8331 -148334.8851 -117349.3418 299.4702 162.8427 113.0618 498722.5830 1.7299 2.4705
ENERGY: 25000 1607.6821 2384.7307 3202.8328 0.0000 -176152.4914 20059.7174 303.6561 0.0000 30849.6017 -117744.2705 299.9416 -148593.8722 -117693.6095 298.2784 -54.4455 -3.3654 497698.6800 -4.0279 -3.9497
TCL: Setting parameter constraintScaling to 0.3125
TCL: Running for 5000 steps
ETITLE: TS BOND ANGLE DIHED IMPRP ELECT VDW BOUNDARY MISC KINETIC TOTAL TEMP POTENTIAL TOTAL3 TEMPAVG PRESSURE GPRESSURE VOLUME PRESSAVG GPRESSAVG
ENERGY: 25000 1607.6821 2384.7307 3202.8328 0.0000 -176152.4914 20059.7174 151.8281 0.0000 30847.5674 -117898.1329 299.9218 -148745.7003 -117850.8820 299.9218 -148.9022 -95.6157 497698.6800 -148.9022 -95.6157
ENERGY: 26000 1646.9923 2441.3422 3193.7649 0.0000 -175876.3419 20145.7392 242.6857 0.0000 30644.0499 -117561.7678 297.9430 -148205.8176 -117513.5999 299.4328 86.5245 93.0081 497478.4135 -1.9382 -1.3679
ENERGY: 27000 1591.4083 2384.9181 3211.5962 0.0000 -175919.8023 20005.6779 235.2423 0.0000 30747.8087 -117743.1506 298.9519 -148490.9594 -117702.6806 298.9348 10.7169 94.7794 496842.2353 -2.2869 -1.8591
ENERGY: 28000 1688.9667 2387.8443 3204.4027 0.0000 -175867.1443 19940.7470 270.8631 0.0000 30829.7071 -117544.6134 299.7481 -148374.3205 -117501.0254 299.2570 -181.0045 -104.3228 496560.8859 -1.1615 -1.6908
ENERGY: 29000 1637.6331 2394.4246 3242.9677 0.0000 -176344.6279 20261.9858 262.2659 0.0000 30673.8494 -117871.5014 298.2328 -148545.3507 -117825.1988 299.5691 13.7521 -43.8323 497307.4220 15.6744 15.3905
ENERGY: 30000 1619.1001 2451.3561 3256.4651 0.0000 -176014.4175 20154.0595 254.8247 0.0000 30754.5912 -117524.0209 299.0178 -148278.6121 -117479.3597 298.5520 -57.2924 -44.9113 497523.4928 -0.2226 -0.7661
TCL: Setting parameter constraintScaling to 0.15625
TCL: Running for 5000 steps
ETITLE: TS BOND ANGLE DIHED IMPRP ELECT VDW BOUNDARY MISC KINETIC TOTAL TEMP POTENTIAL TOTAL3 TEMPAVG PRESSURE GPRESSURE VOLUME PRESSAVG GPRESSAVG
ENERGY: 30000 1619.1001 2451.3561 3256.4651 0.0000 -176014.4175 20154.0595 127.4123 0.0000 30752.5518 -117653.4726 298.9980 -148406.0244 -117610.4650 298.9980 -78.0796 -72.8418 497523.4928 -78.0796 -72.8418
ENERGY: 31000 1596.0925 2425.6603 3235.8630 0.0000 -175390.8752 20070.1257 199.4098 0.0000 30600.4594 -117263.2644 297.5192 -147863.7238 -117231.3590 300.1124 4.9111 10.9443 497686.4265 -4.9689 -4.8096
ENERGY: 32000 1588.4570 2400.0520 3226.2824 0.0000 -175695.9298 20103.9671 203.8091 0.0000 30907.7609 -117265.6015 300.5070 -148173.3624 -117215.0809 300.4027 -59.8370 16.4981 497759.5238 2.6971 2.8604
ENERGY: 33000 1663.8339 2463.8733 3227.4714 0.0000 -175974.3004 20178.8228 204.5646 0.0000 30971.5631 -117264.1713 301.1274 -148235.7344 -117227.0042 300.2338 21.7582 33.0759 498311.1796 6.3530 6.6661
ENERGY: 34000 1573.3710 2357.2937 3176.9299 0.0000 -175548.0628 19960.1814 209.9194 0.0000 31011.3782 -117258.9892 301.5145 -148270.3674 -117213.9568 300.4540 -102.2720 -11.8831 499487.5545 2.7953 2.3750
ENERGY: 35000 1593.7925 2320.8110 3202.0625 0.0000 -176163.2113 20196.0662 213.4656 0.0000 30995.2087 -117641.8048 301.3573 -148637.0135 -117598.8120 298.9581 20.6915 -6.8845 498589.5495 7.1213 7.2915
TCL: Setting parameter constraintScaling to 0.078125
TCL: Running for 5000 steps
ETITLE: TS BOND ANGLE DIHED IMPRP ELECT VDW BOUNDARY MISC KINETIC TOTAL TEMP POTENTIAL TOTAL3 TEMPAVG PRESSURE GPRESSURE VOLUME PRESSAVG GPRESSAVG
ENERGY: 35000 1593.7925 2320.8110 3202.0625 0.0000 -176163.2113 20196.0662 106.7328 0.0000 30993.1489 -117750.5975 301.3372 -148743.7463 -117702.2036 301.3372 3.9130 -19.4801 498589.5495 3.9130 -19.4801
ENERGY: 36000 1567.7328 2378.0458 3227.4917 0.0000 -175969.9924 20145.5270 155.7984 0.0000 30607.5674 -117887.8293 297.5883 -148495.3967 -117840.4339 299.0348 -24.4124 -11.3963 497380.3706 -0.3396 -0.6803
ENERGY: 37000 1672.8447 2354.1428 3190.2129 0.0000 -175869.9943 20037.0815 165.7408 0.0000 30860.0177 -117589.9540 300.0428 -148449.9717 -117542.0180 299.1822 78.3421 20.3343 497611.8217 3.9704 4.0346
ENERGY: 38000 1596.3942 2406.3065 3232.5233 0.0000 -176034.9127 20201.8376 160.2593 0.0000 30921.2007 -117516.3910 300.6377 -148437.5918 -117463.1720 300.2369 13.5970 25.2900 496956.8004 -9.5616 -8.5297
ENERGY: 39000 1648.2840 2506.6271 3228.8763 0.0000 -176171.7553 20072.1880 163.0736 0.0000 30721.0309 -117831.6753 298.6915 -148552.7063 -117796.7643 299.6222 -31.2715 -71.5506 497527.5400 2.2947 2.5351
ENERGY: 40000 1628.1381 2428.0526 3215.7812 0.0000 -176258.3177 20157.6360 176.0136 0.0000 30955.5447 -117697.1514 300.9716 -148652.6962 -117654.5020 298.7413 -1.0576 6.5854 497554.7904 2.4981 2.7674
TCL: Setting parameter constraintScaling to 0.0390625
TCL: Running for 5000 steps
ETITLE: TS BOND ANGLE DIHED IMPRP ELECT VDW BOUNDARY MISC KINETIC TOTAL TEMP POTENTIAL TOTAL3 TEMPAVG PRESSURE GPRESSURE VOLUME PRESSAVG GPRESSAVG
ENERGY: 40000 1628.1381 2428.0526 3215.7812 0.0000 -176258.3177 20157.6360 88.0068 0.0000 30953.4927 -117787.2103 300.9517 -148740.7030 -117746.6773 300.9517 -12.4843 -5.6758 497554.7904 -12.4843 -5.6758
ENERGY: 41000 1632.4524 2391.6202 3221.6736 0.0000 -176142.3425 20173.7345 106.1786 0.0000 30979.9069 -117636.7763 301.2085 -148616.6832 -117589.4885 299.7912 -86.9023 -38.2935 497808.9711 3.7712 4.1204
ENERGY: 42000 1649.1340 2407.9418 3215.8147 0.0000 -176378.3120 20230.2784 128.5023 0.0000 30983.7090 -117762.9319 301.2455 -148746.6409 -117705.7833 300.5309 -30.6310 24.9375 495709.4770 -13.9131 -14.5144
ENERGY: 43000 1668.1821 2385.0068 3212.2669 0.0000 -175821.8470 20008.3585 121.9001 0.0000 30853.4425 -117572.6901 299.9789 -148426.1326 -117530.5253 300.5870 -74.2528 33.5502 495397.1342 6.9138 7.3855
ENERGY: 44000 1654.5747 2392.0033 3192.7826 0.0000 -175799.2011 20007.9767 136.4869 0.0000 30800.5088 -117614.8680 299.4643 -148415.3768 -117569.9858 299.8809 -72.9993 9.4071 496192.4191 1.2905 0.9585
ENERGY: 45000 1605.5604 2360.4028 3208.2277 0.0000 -175362.9750 19774.2454 128.4942 0.0000 30989.0924 -117296.9521 301.2978 -148286.0445 -117251.7657 300.7400 125.2686 5.5621 497054.2915 -4.0862 -4.5319
TCL: Setting parameter constraintScaling to 0.01953125
TCL: Running for 5000 steps
ETITLE: TS BOND ANGLE DIHED IMPRP ELECT VDW BOUNDARY MISC KINETIC TOTAL TEMP POTENTIAL TOTAL3 TEMPAVG PRESSURE GPRESSURE VOLUME PRESSAVG GPRESSAVG
ENERGY: 45000 1605.5604 2360.4028 3208.2277 0.0000 -175362.9750 19774.2454 64.2471 0.0000 30987.0773 -117363.2143 301.2782 -148350.2916 -117322.5225 301.2782 110.0410 -5.9287 497054.2915 110.0410 -5.9287
ENERGY: 46000 1641.5739 2433.4880 3176.5783 0.0000 -175484.4648 20014.9126 83.1967 0.0000 30724.1829 -117410.5324 298.7222 -148134.7153 -117368.3685 300.7220 -61.8365 9.4750 497300.9617 -14.0170 -14.1510
ENERGY: 47000 1625.5016 2446.2362 3200.1205 0.0000 -175542.2288 19939.0308 81.6283 0.0000 30825.9628 -117423.7486 299.7117 -148249.7114 -117379.7354 300.4402 -110.0612 -69.8651 498946.2614 15.9701 16.2057
ENERGY: 48000 1632.8949 2408.6824 3174.6859 0.0000 -176332.2579 20330.1912 86.9752 0.0000 30957.4885 -117741.3399 300.9905 -148698.8284 -117684.4983 300.2455 43.0532 -18.0901 497876.3385 -8.8594 -9.2775
ENERGY: 49000 1630.3671 2371.8811 3175.4516 0.0000 -176605.7783 20289.6019 84.9807 0.0000 30901.4430 -118152.0530 300.4456 -149053.4959 -118104.9760 298.5158 -62.2678 5.7806 497407.5375 -0.2957 -0.4306
ENERGY: 50000 1559.9562 2440.8686 3220.6367 0.0000 -176299.2736 20052.2780 86.7054 0.0000 30805.1267 -118133.7020 299.5092 -148938.8287 -118086.3695 297.8040 -87.5310 -28.4762 497611.0670 -2.2214 -1.7569
TCL: Setting parameter constraintScaling to 0
TCL: Running for 5000 steps
ETITLE: TS BOND ANGLE DIHED IMPRP ELECT VDW BOUNDARY MISC KINETIC TOTAL TEMP POTENTIAL TOTAL3 TEMPAVG PRESSURE GPRESSURE VOLUME PRESSAVG GPRESSAVG
ENERGY: 50000 1559.9562 2440.8686 3220.6367 0.0000 -176299.2736 20052.2780 0.0000 0.0000 30803.0793 -118222.4548 299.4892 -149025.5341 -118179.4821 299.4892 -115.2949 -55.3125 497611.0670 -115.2949 -55.3125
ENERGY: 51000 1629.5741 2462.1540 3193.4036 0.0000 -176529.1155 20151.7817 0.0000 0.0000 30761.1924 -118331.0098 299.0820 -149092.2021 -118272.8533 298.7471 39.2564 48.0221 496178.4900 4.0300 4.1329
ENERGY: 52000 1605.6108 2445.2608 3159.7590 0.0000 -175772.5287 19828.3719 0.0000 0.0000 31039.8122 -117693.7139 301.7909 -148733.5261 -117651.2643 300.7210 -7.9143 -25.6505 496053.0604 9.4450 9.2367
ENERGY: 53000 1630.4374 2381.7204 3179.7630 0.0000 -175902.9908 19989.3646 0.0000 0.0000 30820.7846 -117900.9208 299.6614 -148721.7054 -117857.8174 299.7864 32.0377 -23.7981 497044.0658 6.2606 5.4648
ENERGY: 54000 1634.8467 2411.5589 3156.9431 0.0000 -175860.4773 20035.5832 0.0000 0.0000 30728.8364 -117892.7090 298.7674 -148621.5454 -117853.0482 298.6897 92.6164 50.1912 494923.2669 -22.2864 -21.7938
ENERGY: 55000 1642.4557 2398.7412 3191.8930 0.0000 -175966.5208 19954.3520 0.0000 0.0000 30864.0114 -117915.0675 300.0817 -148779.0789 -117872.4558 299.6450 -44.0170 -73.7948 496010.4051 -4.5537 -4.8489
