Info: SIMULATION PARAMETERS:
Info: TIMESTEP               1
Info: NUMBER OF STEPS        0
Info: STEPS PER CYCLE        10
Info: PERIODIC CELL BASIS 1  72.449 0 0
Info: PERIODIC CELL BASIS 2  0 93.247 0
Info: PERIODIC CELL BASIS 3  0 0 79.185
Info: PERIODIC CELL CENTER   -0.248 -0.156 -0.047
Info: WRAPPING WATERS AROUND PERIODIC BOUNDARIES ON OUTPUT.
Info: WRAPPING ALL CLUSTERS AROUND PERIODIC BOUNDARIES ON OUTPUT.
Info: FIRST LDB TIMESTEP     50
Info: LAST LDB TIMESTEP     -1
Info: HOM BACKGROUND SCALING 1
Info: PME BACKGROUND SCALING 1
Info: MIN ATOMS PER PATCH    40
Info: VELOCITY FILE          ../replicas/rep124/equilibration/eq1.vel
Info: CENTER OF MASS MOVING INITIALLY? NO
Info: DIELECTRIC             1
Info: EXCLUDE                SCALED ONE-FOUR
Info: 1-4 ELECTROSTATICS SCALED BY 0.833333
Info: MODIFIED 1-4 VDW PARAMETERS WILL BE USED
Info: DCD FILENAME           ../replicas/rep124/equilibration/eq2.dcd
Info: DCD FREQUENCY          5000
Info: DCD FIRST STEP         5000
Info: DCD FILE WILL CONTAIN UNIT CELL DATA
Info: XST FILENAME           ../replicas/rep124/equilibration/eq2.xst
Info: XST FREQUENCY          5000
Info: NO VELOCITY DCD OUTPUT
Info: NO FORCE DCD OUTPUT
Info: OUTPUT FILENAME        ../replicas/rep124/equilibration/eq2
Info: RESTART FILENAME       ../replicas/rep124/equilibration/eq2.restart
Info: RESTART FREQUENCY      5000
Info: BINARY RESTART FILES WILL BE USED
Info: SWITCHING ACTIVE
Info: SWITCHING ON           10
Info: SWITCHING OFF          12
Info: PAIRLIST DISTANCE      13.5
Info: PAIRLIST SHRINK RATE   0.01
Info: PAIRLIST GROW RATE     0.01
Info: PAIRLIST TRIGGER       0.3
Info: PAIRLISTS PER CYCLE    2
Info: PAIRLISTS ENABLED
Info: MARGIN                 0.48
Info: HYDROGEN GROUP CUTOFF  2.5
Info: PATCH DIMENSION        16.48
Info: ENERGY OUTPUT STEPS    500
Info: CROSSTERM ENERGY INCLUDED IN DIHEDRAL
Info: TIMING OUTPUT STEPS    5000
Info: PRESSURE OUTPUT STEPS  500
Info: HARMONIC CONSTRAINTS ACTIVE
Info: HARMONIC CONS EXP      2
Info: HARMONIC CONS SCALING  10
Info: LANGEVIN DYNAMICS ACTIVE
Info: LANGEVIN TEMPERATURE   300
Info: LANGEVIN USING BBK INTEGRATOR
Info: LANGEVIN DAMPING COEFFICIENT IS 5 INVERSE PS
Info: LANGEVIN DYNAMICS NOT APPLIED TO HYDROGENS
Info: BERENDSEN PRESSURE COUPLING ACTIVE
Info:     TARGET PRESSURE IS 1 BAR
Info:     COMPRESSIBILITY ESTIMATE IS 4.57e-05 BAR^(-1)
Info:     RELAXATION TIME IS 100 FS
Info:     APPLIED EVERY 2 STEPS
Info:     PRESSURE CONTROL IS GROUP-BASED
Info:       CELL FLUCTUATION IS ISOTROPIC
Info: PARTICLE MESH EWALD (PME) ACTIVE
Info: PME TOLERANCE               1e-06
Info: PME EWALD COEFFICIENT       0.257952
Info: PME INTERPOLATION ORDER     4
Info: PME GRID DIMENSIONS         80 96 80
Info: PME MAXIMUM GRID SPACING    1
Info: FULL ELECTROSTATIC EVALUATION FREQUENCY      2
Info: USING VERLET I (r-RESPA) MTS SCHEME.
Info: C1 SPLITTING OF LONG RANGE ELECTROSTATICS
Info: PLACING ATOMS IN PATCHES BY HYDROGEN GROUPS
Info: RIGID BONDS TO HYDROGEN : WATER
Info:         ERROR TOLERANCE : 1e-05
Info:          MAX ITERATIONS : 100
Info: RIGID WATER USING SETTLE ALGORITHM
Info: RANDOM NUMBER SEED     1503694417
Info: USE HYDROGEN BONDS?    NO
Info: Using AMBER format force field!
Info: AMBER PARM FILE        ../build/complex.top
Info: COORDINATE PDB         ../replicas/rep124/equilibration/eq1.coor
Info: Exclusions in PARM file will be ignored!
Info: SCNB (VDW SCALING)     2
Info: USING ARITHMETIC MEAN TO COMBINE L-J SIGMA PARAMETERS
Info: SUMMARY OF PARAMETERS:
Info: 71 BONDS
Info: 145 ANGLES
Info: 76 DIHEDRAL
Info: 0 IMPROPER
Info: 0 CROSSTERM
Info: 0 VDW
Info: 190 VDW_PAIRS
Info: 0 NBTHOLE_PAIRS
Info: STRUCTURE SUMMARY:
Info: 49394 ATOMS
Info: 49448 BONDS
Info: 8698 ANGLES
Info: 18780 DIHEDRALS
Info: 0 IMPROPERS
Info: 0 CROSSTERMS
Info: 0 EXCLUSIONS
Info: 2336 CONSTRAINTS
Info: 44667 RIGID BONDS
Info: 103515 DEGREES OF FREEDOM
Info: 17225 HYDROGEN GROUPS
Info: 4 ATOMS IN LARGEST HYDROGEN GROUP
Info: 17225 MIGRATION GROUPS
Info: 4 ATOMS IN LARGEST MIGRATION GROUP
Info: TOTAL MASS = 301478 amu
Info: TOTAL CHARGE = 1.00115e-05 e
Info: MASS DENSITY = 0.935846 g/cm^3
Info: ATOM DENSITY = 0.0923345 atoms/A^3
Info: ADDED 70656 IMPLICIT EXCLUSIONS
Info: NONBONDED TABLE R-SQUARED SPACING: 0.0625
Info: NONBONDED TABLE SIZE: 769 POINTS
Info: REMOVING COM VELOCITY 0.0288456 -0.0157036 0.0301975
TCL: Running for 5000 steps
ETITLE: TS BOND ANGLE DIHED IMPRP ELECT VDW BOUNDARY MISC KINETIC TOTAL TEMP POTENTIAL TOTAL3 TEMPAVG PRESSURE GPRESSURE VOLUME PRESSAVG GPRESSAVG
ENERGY: 0 384.2474 1229.8286 2909.6095 0.0000 -212774.0583 29632.8233 0.0000 0.0000 10094.5207 -168523.0288 98.1460 -178617.5495 -168513.4715 98.1460 -2324.2379 -2424.3444 534946.2959 -2324.2379 -2424.3444
ENERGY: 1000 1249.5840 1995.1563 3131.8417 0.0000 -193737.4570 26567.4633 766.1062 0.0000 24087.0868 -135940.2187 234.1916 -160027.3055 -135919.4666 218.1042 11.2407 -8.5497 522530.4272 -12.7637 -12.8957
ENERGY: 2000 1478.7765 2165.3508 3125.0551 0.0000 -184415.1807 23469.1411 784.4101 0.0000 28103.0304 -125289.4167 273.2375 -153392.4470 -125248.8456 264.4517 -117.3248 -32.3656 515226.1768 -26.4111 -26.7520
ENERGY: 3000 1574.2651 2204.6078 3149.5165 0.0000 -179352.8180 21615.6616 784.6569 0.0000 29546.5250 -120477.5851 287.2721 -150024.1101 -120428.6454 284.1262 -95.0765 -14.4949 511068.3588 -9.1701 -8.9875
ENERGY: 4000 1591.3449 2222.3390 3142.7162 0.0000 -176935.1559 20821.3499 795.2352 0.0000 30086.8845 -118275.2863 292.5259 -148362.1707 -118234.9870 293.4301 40.8713 6.6904 506342.8914 -17.2071 -17.4872
ENERGY: 5000 1541.5381 2255.7359 3150.1438 0.0000 -176202.4139 20564.4291 793.9308 0.0000 30445.1059 -117451.5302 296.0088 -147896.6361 -117406.1226 296.7276 -18.7883 2.1448 503617.9411 -22.4572 -22.6701
TCL: Setting parameter constraintScaling to 5.0
TCL: Running for 5000 steps
ETITLE: TS BOND ANGLE DIHED IMPRP ELECT VDW BOUNDARY MISC KINETIC TOTAL TEMP POTENTIAL TOTAL3 TEMPAVG PRESSURE GPRESSURE VOLUME PRESSAVG GPRESSAVG
ENERGY: 5000 1541.5381 2255.7359 3150.1438 0.0000 -176202.4139 20564.4291 396.9654 0.0000 30443.0432 -117850.5583 295.9887 -148293.6016 -117801.8603 295.9887 -56.5783 -39.6196 503617.9411 -56.5783 -39.6196
ENERGY: 6000 1569.5377 2281.1345 3160.1281 0.0000 -175202.0706 20153.1944 644.4496 0.0000 30697.9562 -116695.6701 298.4672 -147393.6263 -116653.9536 299.0217 -83.3276 0.9743 505539.7901 8.3545 8.4303
ENERGY: 7000 1590.7487 2308.8904 3185.2076 0.0000 -175259.7711 19990.8012 653.0452 0.0000 30884.9605 -116646.1176 300.2854 -147531.0780 -116601.0276 299.8011 59.0909 8.7084 502898.8986 -20.6365 -20.4474
ENERGY: 8000 1557.1437 2299.5751 3169.4818 0.0000 -175123.6673 20124.6492 646.0845 0.0000 30802.1289 -116524.6040 299.4800 -147326.7330 -116483.8133 299.6282 36.5662 28.5477 501874.1907 -4.7894 -5.8352
ENERGY: 9000 1575.4664 2340.7920 3191.1834 0.0000 -175954.1334 20236.7065 639.9400 0.0000 31030.3337 -116939.7113 301.6988 -147970.0450 -116899.4594 300.0612 -40.6156 21.3224 502692.2809 -1.3584 -1.2252
ENERGY: 10000 1593.4961 2294.6483 3155.4598 0.0000 -175783.4342 20094.6292 652.5231 0.0000 30669.7839 -117322.8939 298.1933 -147992.6778 -117288.2731 299.2445 -124.2699 -35.6595 500663.2500 -1.7442 -0.7013
TCL: Setting parameter constraintScaling to 2.5
TCL: Running for 5000 steps
ETITLE: TS BOND ANGLE DIHED IMPRP ELECT VDW BOUNDARY MISC KINETIC TOTAL TEMP POTENTIAL TOTAL3 TEMPAVG PRESSURE GPRESSURE VOLUME PRESSAVG GPRESSAVG
ENERGY: 10000 1593.4961 2294.6483 3155.4598 0.0000 -175783.4342 20094.6292 326.2615 0.0000 30667.7300 -117651.2093 298.1733 -148318.9393 -117607.7348 298.1733 -197.5339 -116.4816 500663.2500 -197.5339 -116.4816
ENERGY: 11000 1579.8716 2318.0609 3186.9341 0.0000 -175218.3454 19728.9807 509.7007 0.0000 30868.4010 -117026.3964 300.1243 -147894.7974 -116977.0388 299.5675 -1.2408 62.0898 499863.0769 -2.6800 -2.5297
ENERGY: 12000 1667.6097 2320.5683 3173.0027 0.0000 -175808.7190 20237.5008 470.0267 0.0000 30863.9049 -117076.1060 300.0806 -147940.0109 -117032.5811 300.4000 -1.1272 6.0471 499091.9786 -10.4157 -10.7567
ENERGY: 13000 1559.4838 2317.6354 3193.9656 0.0000 -175533.8619 20032.9038 526.3604 0.0000 30689.9253 -117213.5875 298.3891 -147903.5128 -117167.1786 299.3828 8.0180 1.8999 500221.7661 3.9555 3.7382
ENERGY: 14000 1567.1244 2328.1857 3153.8882 0.0000 -175876.3875 20156.0686 526.2955 0.0000 30832.7581 -117312.0670 299.7778 -148144.8251 -117255.3157 299.6633 -112.8063 -0.7945 499396.6208 -0.7690 0.1562
ENERGY: 15000 1679.6844 2336.2994 3181.6428 0.0000 -175397.7234 20087.4208 515.9661 0.0000 30792.0725 -116804.6373 299.3822 -147596.7099 -116764.9056 301.1002 -153.7903 -63.9283 500220.7807 18.2756 18.2599
TCL: Setting parameter constraintScaling to 1.25
TCL: Running for 5000 steps
ETITLE: TS BOND ANGLE DIHED IMPRP ELECT VDW BOUNDARY MISC KINETIC TOTAL TEMP POTENTIAL TOTAL3 TEMPAVG PRESSURE GPRESSURE VOLUME PRESSAVG GPRESSAVG
ENERGY: 15000 1679.6844 2336.2994 3181.6428 0.0000 -175397.7234 20087.4208 257.9830 0.0000 30790.0114 -117064.6815 299.3622 -147854.6929 -117019.5539 299.3622 -178.5904 -87.6436 500220.7807 -178.5904 -87.6436
ENERGY: 16000 1596.1287 2283.4088 3188.5296 0.0000 -175557.2741 20055.9866 412.2260 0.0000 30810.4359 -117210.5584 299.5608 -148020.9943 -117161.1461 299.0635 8.0002 -26.2935 498925.8028 -2.6323 -2.3896
ENERGY: 17000 1597.4657 2380.8078 3176.7887 0.0000 -175776.5517 20154.9775 405.6657 0.0000 30868.2577 -117192.5886 300.1230 -148060.8463 -117142.9807 299.5603 0.7912 26.6284 498961.2777 -0.1343 0.6444
ENERGY: 18000 1575.5538 2434.3403 3186.8275 0.0000 -175412.1469 19935.6124 418.9561 0.0000 30822.2780 -117038.5789 299.6759 -147860.8570 -116995.9223 298.7875 -194.2511 -71.5140 498173.4385 -7.0420 -6.9946
ENERGY: 19000 1637.4494 2376.2836 3192.7923 0.0000 -176015.5988 20345.3534 394.4106 0.0000 31178.5069 -116890.8026 303.1394 -148069.3095 -116844.1936 300.0459 -30.3291 36.2254 497691.0487 -5.8916 -5.8899
ENERGY: 20000 1584.7531 2382.5390 3169.8490 0.0000 -175103.4801 19924.4717 389.3427 0.0000 30942.7400 -116709.7846 300.8471 -147652.5246 -116675.6212 300.3542 -29.9981 -26.1497 499549.6482 3.0859 3.4898
TCL: Setting parameter constraintScaling to 0.625
TCL: Running for 5000 steps
ETITLE: TS BOND ANGLE DIHED IMPRP ELECT VDW BOUNDARY MISC KINETIC TOTAL TEMP POTENTIAL TOTAL3 TEMPAVG PRESSURE GPRESSURE VOLUME PRESSAVG GPRESSAVG
ENERGY: 20000 1584.7531 2382.5390 3169.8490 0.0000 -175103.4801 19924.4717 194.6713 0.0000 30940.7082 -116906.4877 300.8274 -147847.1960 -116864.2650 300.8274 -63.9331 -62.6834 499549.6482 -63.9331 -62.6834
ENERGY: 21000 1652.0715 2347.9647 3161.3500 0.0000 -175410.9951 19952.9491 328.1766 0.0000 30808.0833 -117160.3998 299.5379 -147968.4832 -117103.7768 299.5926 -12.1687 39.4129 498072.6632 3.8309 4.0574
ENERGY: 22000 1610.6781 2332.1135 3207.7229 0.0000 -175833.0844 20159.1527 336.1630 0.0000 30675.4201 -117511.8340 298.2481 -148187.2541 -117455.5094 299.5552 11.6910 33.1226 496768.7959 -6.9818 -7.0240
ENERGY: 23000 1628.0321 2384.5454 3195.4967 0.0000 -176115.2124 20160.9934 323.9925 0.0000 30909.9618 -117512.1905 300.5284 -148422.1523 -117451.9361 299.1813 84.3513 76.6240 497749.2928 4.3738 4.6469
ENERGY: 24000 1673.9306 2448.3279 3207.3730 0.0000 -176105.2716 20265.3450 299.2827 0.0000 30763.5020 -117447.5104 299.1044 -148211.0124 -117392.4025 299.2604 29.4981 18.1701 497675.9245 -5.9518 -5.5133
ENERGY: 25000 1647.5557 2387.4617 3190.1161 0.0000 -175955.0038 20052.9042 329.3741 0.0000 30696.9168 -117650.6752 298.4571 -148347.5919 -117598.4864 298.7802 62.8444 69.4241 498809.8467 9.1227 8.5475
TCL: Setting parameter constraintScaling to 0.3125
TCL: Running for 5000 steps
ETITLE: TS BOND ANGLE DIHED IMPRP ELECT VDW BOUNDARY MISC KINETIC TOTAL TEMP POTENTIAL TOTAL3 TEMPAVG PRESSURE GPRESSURE VOLUME PRESSAVG GPRESSAVG
ENERGY: 25000 1647.5557 2387.4617 3190.1161 0.0000 -175955.0038 20052.9042 164.6871 0.0000 30694.8836 -117817.3953 298.4373 -148512.2790 -117775.9364 298.4373 9.1773 12.3143 498809.8467 9.1773 12.3143
ENERGY: 26000 1606.8650 2363.6040 3231.5000 0.0000 -175920.9834 19963.0481 236.4125 0.0000 30701.5432 -117818.0106 298.5020 -148519.5538 -117773.2769 298.6654 31.2438 37.8796 497734.4799 -13.4013 -13.3271
ENERGY: 27000 1634.2721 2452.6791 3201.7625 0.0000 -176724.3484 20485.6062 231.3905 0.0000 30887.1587 -117831.4794 300.3067 -148718.6381 -117782.8135 298.7395 12.9329 21.5355 496917.3737 -8.1623 -7.5941
ENERGY: 28000 1638.5572 2369.9916 3206.8499 0.0000 -175599.3696 20072.3417 239.0729 0.0000 30789.0226 -117283.5337 299.3526 -148072.5563 -117233.6185 300.5849 -92.1499 -18.9153 499818.3650 21.9013 22.3699
ENERGY: 29000 1637.9120 2453.9457 3211.2946 0.0000 -175444.9159 19859.4580 262.8401 0.0000 30809.3103 -117210.1551 299.5498 -148019.4654 -117172.9457 300.8888 -6.7022 -7.7290 496087.4385 -9.5961 -9.2171
ENERGY: 30000 1668.3008 2378.2171 3231.9743 0.0000 -175367.2881 19848.5588 259.0828 0.0000 30662.4680 -117318.6863 298.1221 -147981.1543 -117267.8999 299.8956 -181.2513 -54.0546 497558.1772 0.5442 1.2449
TCL: Setting parameter constraintScaling to 0.15625
TCL: Running for 5000 steps
ETITLE: TS BOND ANGLE DIHED IMPRP ELECT VDW BOUNDARY MISC KINETIC TOTAL TEMP POTENTIAL TOTAL3 TEMPAVG PRESSURE GPRESSURE VOLUME PRESSAVG GPRESSAVG
ENERGY: 30000 1668.3008 2378.2171 3231.9743 0.0000 -175367.2881 19848.5588 129.5414 0.0000 30660.4173 -117450.2784 298.1022 -148110.6957 -117407.0158 298.1022 -222.1614 -100.6543 497558.1772 -222.1614 -100.6543
ENERGY: 31000 1649.1473 2389.0861 3244.1818 0.0000 -175865.1088 20055.4256 179.3151 0.0000 30640.4187 -117707.5341 297.9077 -148347.9528 -117666.9834 298.6276 11.3829 82.3112 495601.4372 -7.5954 -8.1044
ENERGY: 32000 1579.0217 2455.1940 3220.2776 0.0000 -175890.4453 19884.2718 213.7373 0.0000 30846.3727 -117691.5700 299.9102 -148537.9427 -117643.4820 298.1203 -184.7736 -58.4407 495946.1028 14.3533 14.3921
ENERGY: 33000 1654.4789 2368.0521 3224.2999 0.0000 -175970.7116 20035.9902 241.1236 0.0000 30598.5583 -117848.2085 297.5007 -148446.7667 -117798.7490 298.4762 52.4605 56.0337 496015.1818 -5.5000 -6.0903
ENERGY: 34000 1645.3935 2473.4774 3223.9260 0.0000 -176105.1828 20094.8833 199.4653 0.0000 30612.4107 -117855.6266 297.6354 -148468.0374 -117796.9012 298.3239 -57.3608 -24.4714 496213.3221 6.5798 6.1218
ENERGY: 35000 1638.1171 2339.1897 3221.9320 0.0000 -175917.1280 20076.6572 198.8024 0.0000 30688.7958 -117753.6339 298.3781 -148442.4296 -117696.8255 299.2363 -6.0029 5.8120 498037.9471 5.0959 5.4587
TCL: Setting parameter constraintScaling to 0.078125
TCL: Running for 5000 steps
ETITLE: TS BOND ANGLE DIHED IMPRP ELECT VDW BOUNDARY MISC KINETIC TOTAL TEMP POTENTIAL TOTAL3 TEMPAVG PRESSURE GPRESSURE VOLUME PRESSAVG GPRESSAVG
ENERGY: 35000 1638.1171 2339.1897 3221.9320 0.0000 -175917.1280 20076.6572 99.4012 0.0000 30686.7502 -117855.0806 298.3582 -148541.8308 -117812.5593 298.3582 -35.4013 -24.9220 498037.9471 -35.4013 -24.9220
ENERGY: 36000 1700.6646 2418.8198 3201.9286 0.0000 -175963.8441 20279.9202 129.5771 0.0000 30862.6374 -117370.2963 300.0683 -148232.9337 -117314.5601 300.4023 12.4879 42.1467 498437.1030 3.3800 3.6397
ENERGY: 37000 1614.2204 2474.5056 3180.1449 0.0000 -176072.3006 20107.8607 140.3275 0.0000 30862.1891 -117693.0524 300.0640 -148555.2415 -117649.7981 299.6275 34.4453 33.6199 497668.8972 3.6478 3.6893
ENERGY: 38000 1619.0416 2397.9092 3242.9954 0.0000 -176065.4267 20314.0962 162.6306 0.0000 30910.2747 -117418.4791 300.5315 -148328.7537 -117373.2399 299.4088 120.4406 98.2020 498188.1668 10.3650 10.0470
ENERGY: 39000 1652.9945 2440.6057 3226.7654 0.0000 -175751.2599 20033.7541 165.4367 0.0000 31023.3622 -117208.3414 301.6310 -148231.7036 -117159.9101 300.8034 -24.6876 -92.9476 497394.5792 -0.5704 -0.6431
ENERGY: 40000 1648.1158 2380.1235 3220.6103 0.0000 -175840.5127 20081.0744 167.1167 0.0000 30843.3982 -117500.0739 299.8813 -148343.4720 -117447.9539 300.3811 48.1846 25.6634 497641.0350 2.0303 2.4346
TCL: Setting parameter constraintScaling to 0.0390625
TCL: Running for 5000 steps
ETITLE: TS BOND ANGLE DIHED IMPRP ELECT VDW BOUNDARY MISC KINETIC TOTAL TEMP POTENTIAL TOTAL3 TEMPAVG PRESSURE GPRESSURE VOLUME PRESSAVG GPRESSAVG
ENERGY: 40000 1648.1158 2380.1235 3220.6103 0.0000 -175840.5127 20081.0744 83.5584 0.0000 30841.3566 -117585.6738 299.8614 -148427.0304 -117541.0746 299.8614 37.0452 10.4094 497641.0350 37.0452 10.4094
ENERGY: 41000 1635.6929 2428.4142 3208.7526 0.0000 -175577.2197 19910.5316 107.2832 0.0000 31120.4877 -117166.0574 302.5753 -148286.5452 -117118.3462 300.2918 -60.7894 14.5058 496525.4619 -1.7807 -2.0901
ENERGY: 42000 1625.6341 2426.7334 3246.1833 0.0000 -175855.2066 20099.8713 119.7375 0.0000 30808.3392 -117528.7079 299.5404 -148337.0471 -117484.1651 300.4870 4.6769 -17.4911 497014.2255 -2.2496 -2.2085
ENERGY: 43000 1590.5596 2392.6568 3183.7339 0.0000 -175913.1730 20194.7630 108.3609 0.0000 30837.5747 -117605.5241 299.8246 -148443.0988 -117561.4552 300.5571 75.8676 90.1107 497713.9426 5.5431 4.8865
ENERGY: 44000 1673.3767 2379.4614 3220.7650 0.0000 -175951.2557 20118.3577 120.0213 0.0000 30730.3817 -117708.8919 298.7824 -148439.2737 -117672.9350 299.3319 80.1252 76.0865 497224.6345 8.5009 8.4616
ENERGY: 45000 1710.4424 2312.6963 3203.6807 0.0000 -176096.0640 20206.9162 122.0741 0.0000 30745.6857 -117794.5686 298.9312 -148540.2543 -117751.3123 298.8984 -137.2561 -11.2186 498142.1050 17.9739 18.0009
TCL: Setting parameter constraintScaling to 0.01953125
TCL: Running for 5000 steps
ETITLE: TS BOND ANGLE DIHED IMPRP ELECT VDW BOUNDARY MISC KINETIC TOTAL TEMP POTENTIAL TOTAL3 TEMPAVG PRESSURE GPRESSURE VOLUME PRESSAVG GPRESSAVG
ENERGY: 45000 1710.4424 2312.6963 3203.6807 0.0000 -176096.0640 20206.9162 61.0370 0.0000 30743.6155 -117857.6759 298.9111 -148601.2914 -117818.4135 298.9111 -144.1426 -21.9558 498142.1050 -144.1426 -21.9558
ENERGY: 46000 1611.2195 2357.8536 3193.6742 0.0000 -176197.0102 20179.5997 80.6387 0.0000 30800.4292 -117973.5953 299.4635 -148774.0245 -117922.6472 298.4209 44.2405 23.5587 496297.1115 0.3615 0.5326
ENERGY: 47000 1573.8832 2415.5516 3192.7214 0.0000 -176283.0729 20125.5762 83.8403 0.0000 30849.2579 -118042.2423 299.9382 -148891.5002 -117994.2700 298.7939 59.8334 51.6798 495703.4352 1.7041 2.3618
ENERGY: 48000 1661.1128 2399.1521 3193.3897 0.0000 -175991.1867 20096.8677 88.9194 0.0000 31186.8157 -117364.9293 303.2202 -148551.7450 -117318.7843 299.5756 -90.1203 -51.4106 496634.7692 5.5411 5.0867
ENERGY: 49000 1728.0708 2441.5337 3205.5570 0.0000 -175932.3137 20098.7091 89.7317 0.0000 30670.1550 -117698.5564 298.1969 -148368.7114 -117646.1194 300.2887 -124.0840 -127.2151 496816.9043 -1.7517 -2.0007
ENERGY: 50000 1633.6052 2405.4390 3241.6650 0.0000 -176314.6122 20219.5970 85.4383 0.0000 30852.1234 -117876.7444 299.9661 -148728.8678 -117831.6038 300.1217 -40.8363 21.2175 497600.0613 6.4052 7.0802
TCL: Setting parameter constraintScaling to 0
TCL: Running for 5000 steps
ETITLE: TS BOND ANGLE DIHED IMPRP ELECT VDW BOUNDARY MISC KINETIC TOTAL TEMP POTENTIAL TOTAL3 TEMPAVG PRESSURE GPRESSURE VOLUME PRESSAVG GPRESSAVG
ENERGY: 50000 1633.6052 2405.4390 3241.6650 0.0000 -176314.6122 20219.5970 0.0000 0.0000 30850.0940 -117964.2121 299.9464 -148814.3061 -117919.2796 299.9464 -51.6247 7.9156 497600.0613 -51.6247 7.9156
ENERGY: 51000 1617.9236 2402.5325 3203.9237 0.0000 -176334.0953 20186.6941 0.0000 0.0000 30604.0513 -118318.9700 297.5542 -148923.0213 -118278.6973 298.1129 19.1845 46.7195 495947.7000 -4.0002 -3.7646
ENERGY: 52000 1695.3867 2377.8584 3210.8423 0.0000 -176089.5936 20184.5950 0.0000 0.0000 30587.1886 -118033.7227 297.3902 -148620.9113 -117991.5071 298.5138 -84.6922 -27.9939 496978.5785 11.6950 11.6199
ENERGY: 53000 1664.3237 2355.8097 3221.9900 0.0000 -175804.9764 19937.7192 0.0000 0.0000 30875.5054 -117749.6285 300.1934 -148625.1339 -117699.9634 300.5864 -25.6368 -25.6262 496451.1105 11.5021 10.5849
ENERGY: 54000 1629.4621 2412.3479 3254.5324 0.0000 -175823.3264 20048.8915 0.0000 0.0000 30914.4284 -117563.6641 300.5719 -148478.0925 -117522.0570 300.8572 24.9296 2.8978 496622.8283 3.8925 3.5126
ENERGY: 55000 1670.1769 2404.1516 3211.5315 0.0000 -176134.6682 20226.4374 0.0000 0.0000 30883.4046 -117738.9661 300.2702 -148622.3707 -117689.9453 300.4430 -13.4980 50.8175 496640.9059 1.8987 1.9954
