Info: SIMULATION PARAMETERS:
Info: TIMESTEP               1
Info: NUMBER OF STEPS        0
Info: STEPS PER CYCLE        10
Info: PERIODIC CELL BASIS 1  72.449 0 0
Info: PERIODIC CELL BASIS 2  0 93.247 0
Info: PERIODIC CELL BASIS 3  0 0 79.185
Info: PERIODIC CELL CENTER   -0.248 -0.156 -0.047
Info: WRAPPING WATERS AROUND PERIODIC BOUNDARIES ON OUTPUT.
Info: WRAPPING ALL CLUSTERS AROUND PERIODIC BOUNDARIES ON OUTPUT.
Info: FIRST LDB TIMESTEP     50
Info: LAST LDB TIMESTEP     -1
Info: HOM BACKGROUND SCALING 1
Info: PME BACKGROUND SCALING 1
Info: MIN ATOMS PER PATCH    40
Info: VELOCITY FILE          ../replicas/rep52/equilibration/eq1.vel
Info: CENTER OF MASS MOVING INITIALLY? NO
Info: DIELECTRIC             1
Info: EXCLUDE                SCALED ONE-FOUR
Info: 1-4 ELECTROSTATICS SCALED BY 0.833333
Info: MODIFIED 1-4 VDW PARAMETERS WILL BE USED
Info: DCD FILENAME           ../replicas/rep52/equilibration/eq2.dcd
Info: DCD FREQUENCY          5000
Info: DCD FIRST STEP         5000
Info: DCD FILE WILL CONTAIN UNIT CELL DATA
Info: XST FILENAME           ../replicas/rep52/equilibration/eq2.xst
Info: XST FREQUENCY          5000
Info: NO VELOCITY DCD OUTPUT
Info: NO FORCE DCD OUTPUT
Info: OUTPUT FILENAME        ../replicas/rep52/equilibration/eq2
Info: RESTART FILENAME       ../replicas/rep52/equilibration/eq2.restart
Info: RESTART FREQUENCY      5000
Info: BINARY RESTART FILES WILL BE USED
Info: SWITCHING ACTIVE
Info: SWITCHING ON           10
Info: SWITCHING OFF          12
Info: PAIRLIST DISTANCE      13.5
Info: PAIRLIST SHRINK RATE   0.01
Info: PAIRLIST GROW RATE     0.01
Info: PAIRLIST TRIGGER       0.3
Info: PAIRLISTS PER CYCLE    2
Info: PAIRLISTS ENABLED
Info: MARGIN                 0.48
Info: HYDROGEN GROUP CUTOFF  2.5
Info: PATCH DIMENSION        16.48
Info: ENERGY OUTPUT STEPS    500
Info: CROSSTERM ENERGY INCLUDED IN DIHEDRAL
Info: TIMING OUTPUT STEPS    5000
Info: PRESSURE OUTPUT STEPS  500
Info: HARMONIC CONSTRAINTS ACTIVE
Info: HARMONIC CONS EXP      2
Info: HARMONIC CONS SCALING  10
Info: LANGEVIN DYNAMICS ACTIVE
Info: LANGEVIN TEMPERATURE   300
Info: LANGEVIN USING BBK INTEGRATOR
Info: LANGEVIN DAMPING COEFFICIENT IS 5 INVERSE PS
Info: LANGEVIN DYNAMICS NOT APPLIED TO HYDROGENS
Info: BERENDSEN PRESSURE COUPLING ACTIVE
Info:     TARGET PRESSURE IS 1 BAR
Info:     COMPRESSIBILITY ESTIMATE IS 4.57e-05 BAR^(-1)
Info:     RELAXATION TIME IS 100 FS
Info:     APPLIED EVERY 2 STEPS
Info:     PRESSURE CONTROL IS GROUP-BASED
Info:       CELL FLUCTUATION IS ISOTROPIC
Info: PARTICLE MESH EWALD (PME) ACTIVE
Info: PME TOLERANCE               1e-06
Info: PME EWALD COEFFICIENT       0.257952
Info: PME INTERPOLATION ORDER     4
Info: PME GRID DIMENSIONS         80 96 80
Info: PME MAXIMUM GRID SPACING    1
Info: FULL ELECTROSTATIC EVALUATION FREQUENCY      2
Info: USING VERLET I (r-RESPA) MTS SCHEME.
Info: C1 SPLITTING OF LONG RANGE ELECTROSTATICS
Info: PLACING ATOMS IN PATCHES BY HYDROGEN GROUPS
Info: RIGID BONDS TO HYDROGEN : WATER
Info:         ERROR TOLERANCE : 1e-05
Info:          MAX ITERATIONS : 100
Info: RIGID WATER USING SETTLE ALGORITHM
Info: RANDOM NUMBER SEED     1503694799
Info: USE HYDROGEN BONDS?    NO
Info: Using AMBER format force field!
Info: AMBER PARM FILE        ../build/complex.top
Info: COORDINATE PDB         ../replicas/rep52/equilibration/eq1.coor
Info: Exclusions in PARM file will be ignored!
Info: SCNB (VDW SCALING)     2
Info: USING ARITHMETIC MEAN TO COMBINE L-J SIGMA PARAMETERS
Info: SUMMARY OF PARAMETERS:
Info: 71 BONDS
Info: 145 ANGLES
Info: 76 DIHEDRAL
Info: 0 IMPROPER
Info: 0 CROSSTERM
Info: 0 VDW
Info: 190 VDW_PAIRS
Info: 0 NBTHOLE_PAIRS
Info: STRUCTURE SUMMARY:
Info: 49394 ATOMS
Info: 49448 BONDS
Info: 8698 ANGLES
Info: 18780 DIHEDRALS
Info: 0 IMPROPERS
Info: 0 CROSSTERMS
Info: 0 EXCLUSIONS
Info: 2336 CONSTRAINTS
Info: 44667 RIGID BONDS
Info: 103515 DEGREES OF FREEDOM
Info: 17225 HYDROGEN GROUPS
Info: 4 ATOMS IN LARGEST HYDROGEN GROUP
Info: 17225 MIGRATION GROUPS
Info: 4 ATOMS IN LARGEST MIGRATION GROUP
Info: TOTAL MASS = 301478 amu
Info: TOTAL CHARGE = 1.00115e-05 e
Info: MASS DENSITY = 0.935846 g/cm^3
Info: ATOM DENSITY = 0.0923345 atoms/A^3
Info: ADDED 70656 IMPLICIT EXCLUSIONS
Info: NONBONDED TABLE R-SQUARED SPACING: 0.0625
Info: NONBONDED TABLE SIZE: 769 POINTS
Info: REMOVING COM VELOCITY -0.0313302 0.000411583 -0.00368822
TCL: Running for 5000 steps
ETITLE: TS BOND ANGLE DIHED IMPRP ELECT VDW BOUNDARY MISC KINETIC TOTAL TEMP POTENTIAL TOTAL3 TEMPAVG PRESSURE GPRESSURE VOLUME PRESSAVG GPRESSAVG
ENERGY: 0 402.2518 1193.9372 2911.5769 0.0000 -212542.9016 29439.9723 0.0000 0.0000 9989.8320 -168605.3314 97.1282 -178595.1634 -168595.6680 97.1282 -2452.2653 -2551.3779 534946.2959 -2452.2653 -2551.3779
ENERGY: 1000 1237.2948 1982.5625 3095.1432 0.0000 -193146.9352 26242.3440 740.0721 0.0000 24263.4506 -135586.0680 235.9064 -159849.5186 -135565.3905 219.0575 -53.1639 -21.7308 520743.1112 -15.0306 -15.0218
ENERGY: 2000 1445.2380 2128.3435 3106.7561 0.0000 -184461.2308 23446.2870 811.1852 0.0000 27912.8422 -125610.5788 271.3883 -153523.4210 -125575.3309 264.4033 -21.8723 -16.5822 512484.0171 -41.0559 -41.4473
ENERGY: 3000 1575.2789 2191.7433 3128.4919 0.0000 -179231.0592 21544.5705 797.4586 0.0000 29548.0171 -120445.4989 287.2866 -149993.5159 -120408.5999 283.9562 87.5522 36.9979 509731.3185 -10.9738 -11.0181
ENERGY: 4000 1556.5591 2201.4575 3157.7229 0.0000 -176771.5111 20719.5513 802.7126 0.0000 30374.0843 -117959.4233 295.3183 -148333.5076 -117921.7995 293.6832 -81.8447 -26.2892 506066.8935 -23.8601 -23.8628
ENERGY: 5000 1579.5459 2291.7332 3146.2286 0.0000 -176224.9708 20666.0662 813.2684 0.0000 30624.1674 -117103.9611 297.7497 -147728.1285 -117058.1217 297.4792 -96.6933 5.2093 504279.0594 -15.2972 -16.1156
TCL: Setting parameter constraintScaling to 5.0
TCL: Running for 5000 steps
ETITLE: TS BOND ANGLE DIHED IMPRP ELECT VDW BOUNDARY MISC KINETIC TOTAL TEMP POTENTIAL TOTAL3 TEMPAVG PRESSURE GPRESSURE VOLUME PRESSAVG GPRESSAVG
ENERGY: 5000 1579.5459 2291.7332 3146.2286 0.0000 -176224.9708 20666.0662 406.6342 0.0000 30622.1055 -117512.6572 297.7297 -148134.7627 -117468.1619 297.7297 -84.2371 8.6809 504279.0594 -84.2371 8.6809
ENERGY: 6000 1646.2352 2335.2569 3142.1768 0.0000 -176030.0764 20340.6227 667.3098 0.0000 30535.7192 -117362.7559 296.8898 -147898.4751 -117324.4915 297.9781 -86.9211 -0.8753 503608.1976 -5.8740 -5.9572
ENERGY: 7000 1582.1004 2299.1532 3154.1120 0.0000 -176009.1762 20502.6007 654.2736 0.0000 30640.0185 -117176.9179 297.9039 -147816.9364 -117132.9469 298.0385 -18.4413 -25.1609 502995.1043 -4.1845 -4.7736
ENERGY: 8000 1591.3202 2309.0290 3144.4360 0.0000 -175643.2925 20247.5493 631.0312 0.0000 30769.9047 -116950.0223 299.1667 -147719.9269 -116909.8760 299.6055 34.7565 9.5852 502696.6235 -5.8582 -5.8682
ENERGY: 9000 1636.8196 2316.8009 3163.8478 0.0000 -175407.7682 20068.0360 662.7105 0.0000 30766.1311 -116793.4224 299.1300 -147559.5534 -116751.1377 299.2486 -5.8358 -44.4331 501999.1293 -7.4890 -7.3782
ENERGY: 10000 1639.2324 2309.8441 3140.2136 0.0000 -175722.0321 20255.7966 625.5572 0.0000 30670.0341 -117081.3542 298.1957 -147751.3883 -117021.7134 299.0153 52.4407 52.7641 501310.9835 5.1148 4.8146
TCL: Setting parameter constraintScaling to 2.5
TCL: Running for 5000 steps
ETITLE: TS BOND ANGLE DIHED IMPRP ELECT VDW BOUNDARY MISC KINETIC TOTAL TEMP POTENTIAL TOTAL3 TEMPAVG PRESSURE GPRESSURE VOLUME PRESSAVG GPRESSAVG
ENERGY: 10000 1639.2324 2309.8441 3140.2136 0.0000 -175722.0322 20255.7966 312.7786 0.0000 30668.0060 -117396.1609 298.1760 -148064.1669 -117351.8806 298.1760 36.5257 34.9737 501310.9835 36.5257 34.9737
ENERGY: 11000 1606.0476 2312.9163 3168.6175 0.0000 -175322.9416 19879.7670 496.9269 0.0000 30812.5726 -117046.0936 299.5815 -147858.6662 -117006.4416 300.4568 -16.7278 -22.3873 500872.8827 -7.2082 -7.0029
ENERGY: 12000 1665.5060 2360.9322 3183.9319 0.0000 -175835.2276 20255.3011 491.7224 0.0000 30765.1854 -117112.6486 299.1208 -147877.8340 -117066.3210 299.3287 10.6192 89.1047 499422.3381 -0.9335 -0.8602
ENERGY: 13000 1631.0734 2375.6440 3148.6365 0.0000 -175636.5050 20154.9652 538.2663 0.0000 30462.3179 -117325.6017 296.1761 -147787.9196 -117282.0508 299.1024 -121.2749 -23.6488 499242.5138 -10.6552 -10.3065
ENERGY: 14000 1573.6378 2385.2212 3179.8849 0.0000 -175953.5739 20227.2345 507.0685 0.0000 30653.4982 -117427.0287 298.0349 -148080.5269 -117381.2191 298.9030 -43.7397 12.4224 500664.4853 2.8995 3.5261
ENERGY: 15000 1592.3327 2377.9076 3180.1153 0.0000 -176034.3186 20162.4222 505.9356 0.0000 30601.7296 -117613.8756 297.5316 -148215.6052 -117574.2907 298.0756 -49.1350 -21.7607 501225.6194 15.2326 15.3925
TCL: Setting parameter constraintScaling to 1.25
TCL: Running for 5000 steps
ETITLE: TS BOND ANGLE DIHED IMPRP ELECT VDW BOUNDARY MISC KINETIC TOTAL TEMP POTENTIAL TOTAL3 TEMPAVG PRESSURE GPRESSURE VOLUME PRESSAVG GPRESSAVG
ENERGY: 15000 1592.3327 2377.9076 3180.1153 0.0000 -176034.3186 20162.4222 252.9678 0.0000 30599.6509 -117868.9222 297.5114 -148468.5731 -117822.1280 297.5114 -143.5891 -117.8106 501225.6194 -143.5891 -117.8106
ENERGY: 16000 1639.2091 2378.3167 3155.4840 0.0000 -176124.7196 20319.3481 423.0148 0.0000 30705.0538 -117504.2930 298.5362 -148209.3469 -117458.3865 298.6375 -30.1341 24.2924 499218.4436 -2.6885 -2.0963
ENERGY: 17000 1569.2168 2384.6944 3177.4936 0.0000 -175938.2477 20088.5246 393.3722 0.0000 30842.4169 -117482.5291 299.8717 -148324.9460 -117441.1994 298.9692 -57.4691 -26.1671 499676.0244 -5.0669 -4.5861
ENERGY: 18000 1590.9970 2360.6839 3178.5444 0.0000 -175851.1824 20211.5019 405.9911 0.0000 30729.3082 -117374.1558 298.7720 -148103.4640 -117330.8280 299.3476 -25.3439 36.5708 499685.4316 10.4205 10.4601
ENERGY: 19000 1583.1731 2341.4197 3161.3629 0.0000 -175754.4937 20041.1936 407.4066 0.0000 30792.0272 -117427.9106 299.3818 -148219.9378 -117375.5366 298.4706 -39.1958 30.8957 499753.1376 4.8092 5.3836
ENERGY: 20000 1572.1677 2372.0454 3179.0077 0.0000 -175643.2140 20114.5767 405.9350 0.0000 30450.2096 -117549.2719 296.0584 -147999.4815 -117506.6394 297.9114 -8.7820 36.6047 500964.3089 4.0582 4.7933
TCL: Setting parameter constraintScaling to 0.625
TCL: Running for 5000 steps
ETITLE: TS BOND ANGLE DIHED IMPRP ELECT VDW BOUNDARY MISC KINETIC TOTAL TEMP POTENTIAL TOTAL3 TEMPAVG PRESSURE GPRESSURE VOLUME PRESSAVG GPRESSAVG
ENERGY: 20000 1572.1677 2372.0454 3179.0077 0.0000 -175643.2140 20114.5767 202.9675 0.0000 30448.1596 -117754.2894 296.0385 -148202.4489 -117712.5745 296.0385 -31.9135 8.3096 500964.3089 -31.9135 8.3096
ENERGY: 21000 1635.2681 2346.0917 3216.5131 0.0000 -175622.0000 20060.3417 321.5189 0.0000 30746.3402 -117295.9263 298.9376 -148042.2665 -117262.1346 299.3611 -170.8299 -131.7020 499274.5185 1.1653 1.6342
ENERGY: 22000 1604.4677 2405.8939 3213.0295 0.0000 -176283.9902 20233.2001 315.3535 0.0000 30793.4480 -117718.5975 299.3956 -148512.0454 -117668.9409 297.6816 -149.4974 -36.0794 497997.1167 -4.6980 -5.4165
ENERGY: 23000 1651.6308 2400.5759 3186.4221 0.0000 -175623.7228 20232.5279 325.1519 0.0000 30770.1541 -117057.2600 299.1691 -147827.4141 -116999.3796 299.6749 -75.1632 -61.6958 499200.1889 11.4297 11.9944
ENERGY: 24000 1608.5528 2405.9187 3197.5531 0.0000 -175552.5474 20076.3467 324.6460 0.0000 30777.8667 -117161.6635 299.2441 -147939.5301 -117117.0380 300.4011 52.4041 59.3167 499358.9170 1.8218 2.2400
ENERGY: 25000 1614.3053 2413.1421 3184.9424 0.0000 -175542.9535 19794.1820 293.6697 0.0000 30846.2646 -117396.4474 299.9091 -148242.7119 -117327.8616 299.5050 -42.3588 32.7158 498072.0734 3.2204 3.2277
TCL: Setting parameter constraintScaling to 0.3125
TCL: Running for 5000 steps
ETITLE: TS BOND ANGLE DIHED IMPRP ELECT VDW BOUNDARY MISC KINETIC TOTAL TEMP POTENTIAL TOTAL3 TEMPAVG PRESSURE GPRESSURE VOLUME PRESSAVG GPRESSAVG
ENERGY: 25000 1614.3053 2413.1421 3184.9424 0.0000 -175542.9534 19794.1820 146.8349 0.0000 30844.2508 -117545.2960 299.8895 -148389.5468 -117499.2901 299.8895 -95.2504 -25.2665 498072.0734 -95.2504 -25.2665
ENERGY: 26000 1603.1618 2396.6203 3196.6108 0.0000 -175480.3030 19985.5695 256.0039 0.0000 30825.2476 -117217.0891 299.7048 -148042.3366 -117164.5951 300.3625 26.5603 99.3967 497774.3412 -3.1104 -2.6311
ENERGY: 27000 1660.6103 2444.0426 3187.8445 0.0000 -175816.0279 20067.8765 237.9082 0.0000 30750.6409 -117467.1049 298.9794 -148217.7458 -117413.1727 299.6973 -95.7709 -26.4911 499575.4857 10.9184 11.0631
ENERGY: 28000 1639.6707 2411.7802 3174.7236 0.0000 -175936.0140 20219.5706 242.1788 0.0000 30680.6452 -117567.4450 298.2989 -148248.0902 -117515.9086 299.5783 -103.4354 -73.9087 500473.9124 -0.4716 -0.3278
ENERGY: 29000 1590.0018 2427.8651 3220.2491 0.0000 -176089.6117 20272.9426 253.7445 0.0000 30753.6611 -117571.1476 299.0088 -148324.8086 -117527.6493 298.9921 -66.3116 -12.9944 498529.2558 -5.0542 -5.6070
ENERGY: 30000 1672.0025 2416.8053 3199.5694 0.0000 -175889.8532 20069.3871 248.0560 0.0000 30964.4644 -117319.5684 301.0583 -148284.0328 -117283.3684 299.7027 -81.1047 -48.0056 498705.3413 1.7244 1.2556
TCL: Setting parameter constraintScaling to 0.15625
TCL: Running for 5000 steps
ETITLE: TS BOND ANGLE DIHED IMPRP ELECT VDW BOUNDARY MISC KINETIC TOTAL TEMP POTENTIAL TOTAL3 TEMPAVG PRESSURE GPRESSURE VOLUME PRESSAVG GPRESSAVG
ENERGY: 30000 1672.0025 2416.8053 3199.5694 0.0000 -175889.8532 20069.3871 124.0280 0.0000 30962.4155 -117445.6453 301.0384 -148408.0608 -117406.9092 301.0384 -134.3118 -98.4654 498705.3413 -134.3118 -98.4654
ENERGY: 31000 1629.7129 2392.2093 3194.7451 0.0000 -175623.7743 19974.2949 173.7191 0.0000 30769.4936 -117489.5994 299.1627 -148259.0929 -117444.1977 299.3892 -75.3568 -35.3792 498389.7872 -1.9514 -1.8279
ENERGY: 32000 1630.9785 2426.9886 3230.2542 0.0000 -176009.4009 20024.4740 188.1867 0.0000 30711.7463 -117796.7726 298.6012 -148508.5189 -117764.6714 299.4091 -17.7194 -33.5224 497781.8848 -2.6667 -2.5476
ENERGY: 33000 1662.5035 2344.4382 3217.1802 0.0000 -176044.1119 20084.1320 191.1245 0.0000 30691.5276 -117853.2061 298.4047 -148544.7336 -117804.5660 298.4854 -118.1266 -91.6164 497183.2938 -3.2447 -3.4859
ENERGY: 34000 1638.2711 2358.3019 3191.3580 0.0000 -176017.3820 20221.5475 197.3542 0.0000 30987.5808 -117422.9686 301.2831 -148410.5494 -117369.5477 299.8266 -91.4835 -45.0248 498401.9464 7.8542 7.9364
ENERGY: 35000 1662.3879 2398.8524 3186.0968 0.0000 -176243.5761 20253.0752 186.0296 0.0000 30641.6634 -117915.4707 297.9198 -148557.1341 -117869.4811 298.6747 101.5064 -8.8110 496742.4759 -7.3826 -7.9138
TCL: Setting parameter constraintScaling to 0.078125
TCL: Running for 5000 steps
ETITLE: TS BOND ANGLE DIHED IMPRP ELECT VDW BOUNDARY MISC KINETIC TOTAL TEMP POTENTIAL TOTAL3 TEMPAVG PRESSURE GPRESSURE VOLUME PRESSAVG GPRESSAVG
ENERGY: 35000 1662.3879 2398.8524 3186.0968 0.0000 -176243.5761 20253.0752 93.0148 0.0000 30639.5998 -118010.5491 297.8998 -148650.1489 -117966.7934 297.8998 92.0482 -12.8723 496742.4759 92.0482 -12.8723
ENERGY: 36000 1609.9386 2392.2039 3235.5858 0.0000 -175935.7574 20051.9879 143.5616 0.0000 30752.9684 -117749.5112 299.0020 -148502.4795 -117694.4822 299.1818 -73.6846 -67.7263 496654.5037 -2.3634 -2.5092
ENERGY: 37000 1588.3036 2427.1582 3244.2880 0.0000 -175911.1206 19920.8871 159.8436 0.0000 30835.7133 -117734.9268 299.8065 -148570.6401 -117696.4373 298.5257 -88.7983 10.6729 497104.5843 -2.8235 -3.3512
ENERGY: 38000 1628.4698 2480.1324 3212.2507 0.0000 -175718.5272 20180.9157 166.3666 0.0000 30782.2258 -117268.1662 299.2865 -148050.3920 -117228.2768 300.5577 31.0468 63.5494 497518.0419 5.9887 5.8600
ENERGY: 39000 1657.5134 2386.4177 3190.6397 0.0000 -176034.1954 20193.5486 149.0623 0.0000 30923.4851 -117533.5286 300.6599 -148457.0137 -117485.5857 299.6935 -97.4555 -29.6182 498773.1765 4.0895 4.2566
ENERGY: 40000 1628.0911 2362.1758 3211.2906 0.0000 -175769.7659 20134.9242 174.6028 0.0000 30706.2211 -117552.4602 298.5475 -148258.6813 -117519.1500 299.1475 -27.3692 69.6172 498925.0624 -1.0255 -0.3321
TCL: Setting parameter constraintScaling to 0.0390625
TCL: Running for 5000 steps
ETITLE: TS BOND ANGLE DIHED IMPRP ELECT VDW BOUNDARY MISC KINETIC TOTAL TEMP POTENTIAL TOTAL3 TEMPAVG PRESSURE GPRESSURE VOLUME PRESSAVG GPRESSAVG
ENERGY: 40000 1628.0911 2362.1758 3211.2906 0.0000 -175769.7659 20134.9242 87.3014 0.0000 30704.1822 -117641.8005 298.5277 -148345.9827 -117600.4994 298.5277 -33.2484 58.6489 498925.0624 -33.2484 58.6489
ENERGY: 41000 1641.8142 2373.8239 3212.5725 0.0000 -175885.3325 20021.5019 111.1140 0.0000 30748.4622 -117776.0439 298.9582 -148524.5060 -117730.6099 299.2524 32.4114 58.4101 497487.6229 -15.5689 -15.4094
ENERGY: 42000 1641.6953 2371.9224 3215.4976 0.0000 -175781.0015 20037.3534 119.3154 0.0000 30962.6033 -117432.6141 301.0402 -148395.2174 -117373.6480 300.6738 -49.3676 -0.5371 498203.8254 2.0051 1.5776
ENERGY: 43000 1666.4302 2388.7050 3185.8554 0.0000 -175882.6008 20090.9062 114.6641 0.0000 31061.3379 -117374.7020 302.0002 -148436.0398 -117334.6125 299.6182 -42.1452 -57.0139 496997.2371 -10.0717 -9.5396
ENERGY: 44000 1626.1036 2427.2619 3198.4838 0.0000 -175608.2671 19900.1497 123.0722 0.0000 30881.1211 -117452.0748 300.2480 -148333.1959 -117407.9219 300.6800 5.2846 -5.6514 498586.8729 5.8402 5.7183
ENERGY: 45000 1634.5485 2425.8682 3204.8566 0.0000 -175957.6666 20298.8569 130.6779 0.0000 30798.8608 -117463.9977 299.4482 -148262.8585 -117415.3355 300.5479 74.7277 91.0591 498162.1588 1.6907 2.2070
TCL: Setting parameter constraintScaling to 0.01953125
TCL: Running for 5000 steps
ETITLE: TS BOND ANGLE DIHED IMPRP ELECT VDW BOUNDARY MISC KINETIC TOTAL TEMP POTENTIAL TOTAL3 TEMPAVG PRESSURE GPRESSURE VOLUME PRESSAVG GPRESSAVG
ENERGY: 45000 1634.5485 2425.8682 3204.8566 0.0000 -175957.6666 20298.8569 65.3389 0.0000 30796.8148 -117531.3826 299.4283 -148328.1974 -117491.9417 299.4283 69.3954 91.7388 498162.1588 69.3954 91.7388
ENERGY: 46000 1713.5735 2409.6530 3235.0358 0.0000 -176104.5414 20195.2045 74.2978 0.0000 30349.6518 -118127.1250 295.0807 -148476.7768 -118086.3654 299.0429 -30.7418 12.2416 496308.7387 -6.1872 -6.7750
ENERGY: 47000 1622.8441 2444.0243 3191.5238 0.0000 -175960.7074 19922.2246 80.4259 0.0000 30735.8673 -117963.7973 298.8358 -148699.6646 -117908.3944 298.7487 -14.2023 8.8499 496031.8631 2.1546 2.2819
ENERGY: 48000 1693.2734 2491.2250 3211.0262 0.0000 -176298.5989 20178.9804 83.2573 0.0000 30947.6599 -117693.1766 300.8950 -148640.8365 -117651.5297 300.0770 -71.1606 -12.7149 495628.6632 5.5065 5.4722
ENERGY: 49000 1647.7908 2431.4588 3166.9681 0.0000 -175386.9254 19848.1254 86.7707 0.0000 30782.1898 -117423.6218 299.2861 -148205.8116 -117372.8569 300.6778 -84.2333 -41.6366 497072.1462 1.6370 1.7720
ENERGY: 50000 1655.5448 2443.8158 3195.8951 0.0000 -176159.6513 20103.8392 85.3919 0.0000 30969.4520 -117705.7125 301.1068 -148675.1645 -117657.9706 300.3454 -77.0116 -38.7906 495742.9772 -5.4187 -5.9006
TCL: Setting parameter constraintScaling to 0
TCL: Running for 5000 steps
ETITLE: TS BOND ANGLE DIHED IMPRP ELECT VDW BOUNDARY MISC KINETIC TOTAL TEMP POTENTIAL TOTAL3 TEMPAVG PRESSURE GPRESSURE VOLUME PRESSAVG GPRESSAVG
ENERGY: 50000 1655.5448 2443.8158 3195.8951 0.0000 -176159.6513 20103.8392 0.0000 0.0000 30967.4160 -117793.1405 301.0870 -148760.5565 -117750.9531 301.0870 -81.5997 -35.4296 495742.9772 -81.5997 -35.4296
ENERGY: 51000 1635.7538 2419.9090 3157.4165 0.0000 -175887.5567 19927.0548 0.0000 0.0000 30894.7929 -117852.6297 300.3809 -148747.4226 -117801.5872 299.4061 -193.5723 -150.8286 496010.6610 -3.2694 -3.1457
ENERGY: 52000 1630.7075 2410.2775 3188.9326 0.0000 -175689.0678 19786.4772 0.0000 0.0000 30926.1206 -117746.5524 300.6855 -148672.6730 -117695.4517 299.6473 -76.5188 -48.3469 495814.6554 5.7080 5.3326
ENERGY: 53000 1650.0961 2388.8590 3178.1845 0.0000 -176411.0158 20239.0258 0.0000 0.0000 30888.8062 -118066.0442 300.3227 -148954.8504 -118013.0447 298.7881 -52.3444 -27.8503 496142.1315 -9.5900 -9.9449
ENERGY: 54000 1652.0335 2396.0147 3201.8471 0.0000 -176279.0410 20282.0290 0.0000 0.0000 30810.6669 -117936.4498 299.5630 -148747.1167 -117882.9860 299.1012 -10.0947 46.0380 496620.1879 10.5251 10.8444
ENERGY: 55000 1634.2368 2449.5364 3163.2658 0.0000 -175444.1951 19920.2362 0.0000 0.0000 30661.2052 -117615.7147 298.1098 -148276.9199 -117574.7359 300.3967 -60.2774 -83.9858 497831.5088 1.3708 1.6846
