Info: SIMULATION PARAMETERS:
Info: TIMESTEP               1
Info: NUMBER OF STEPS        0
Info: STEPS PER CYCLE        10
Info: PERIODIC CELL BASIS 1  72.449 0 0
Info: PERIODIC CELL BASIS 2  0 93.247 0
Info: PERIODIC CELL BASIS 3  0 0 79.185
Info: PERIODIC CELL CENTER   -0.248 -0.156 -0.047
Info: WRAPPING WATERS AROUND PERIODIC BOUNDARIES ON OUTPUT.
Info: WRAPPING ALL CLUSTERS AROUND PERIODIC BOUNDARIES ON OUTPUT.
Info: FIRST LDB TIMESTEP     50
Info: LAST LDB TIMESTEP     -1
Info: HOM BACKGROUND SCALING 1
Info: PME BACKGROUND SCALING 1
Info: MIN ATOMS PER PATCH    40
Info: VELOCITY FILE          ../replicas/rep104/equilibration/eq1.vel
Info: CENTER OF MASS MOVING INITIALLY? NO
Info: DIELECTRIC             1
Info: EXCLUDE                SCALED ONE-FOUR
Info: 1-4 ELECTROSTATICS SCALED BY 0.833333
Info: MODIFIED 1-4 VDW PARAMETERS WILL BE USED
Info: DCD FILENAME           ../replicas/rep104/equilibration/eq2.dcd
Info: DCD FREQUENCY          5000
Info: DCD FIRST STEP         5000
Info: DCD FILE WILL CONTAIN UNIT CELL DATA
Info: XST FILENAME           ../replicas/rep104/equilibration/eq2.xst
Info: XST FREQUENCY          5000
Info: NO VELOCITY DCD OUTPUT
Info: NO FORCE DCD OUTPUT
Info: OUTPUT FILENAME        ../replicas/rep104/equilibration/eq2
Info: RESTART FILENAME       ../replicas/rep104/equilibration/eq2.restart
Info: RESTART FREQUENCY      5000
Info: BINARY RESTART FILES WILL BE USED
Info: SWITCHING ACTIVE
Info: SWITCHING ON           10
Info: SWITCHING OFF          12
Info: PAIRLIST DISTANCE      13.5
Info: PAIRLIST SHRINK RATE   0.01
Info: PAIRLIST GROW RATE     0.01
Info: PAIRLIST TRIGGER       0.3
Info: PAIRLISTS PER CYCLE    2
Info: PAIRLISTS ENABLED
Info: MARGIN                 0.48
Info: HYDROGEN GROUP CUTOFF  2.5
Info: PATCH DIMENSION        16.48
Info: ENERGY OUTPUT STEPS    500
Info: CROSSTERM ENERGY INCLUDED IN DIHEDRAL
Info: TIMING OUTPUT STEPS    5000
Info: PRESSURE OUTPUT STEPS  500
Info: HARMONIC CONSTRAINTS ACTIVE
Info: HARMONIC CONS EXP      2
Info: HARMONIC CONS SCALING  10
Info: LANGEVIN DYNAMICS ACTIVE
Info: LANGEVIN TEMPERATURE   300
Info: LANGEVIN USING BBK INTEGRATOR
Info: LANGEVIN DAMPING COEFFICIENT IS 5 INVERSE PS
Info: LANGEVIN DYNAMICS NOT APPLIED TO HYDROGENS
Info: BERENDSEN PRESSURE COUPLING ACTIVE
Info:     TARGET PRESSURE IS 1 BAR
Info:     COMPRESSIBILITY ESTIMATE IS 4.57e-05 BAR^(-1)
Info:     RELAXATION TIME IS 100 FS
Info:     APPLIED EVERY 2 STEPS
Info:     PRESSURE CONTROL IS GROUP-BASED
Info:       CELL FLUCTUATION IS ISOTROPIC
Info: PARTICLE MESH EWALD (PME) ACTIVE
Info: PME TOLERANCE               1e-06
Info: PME EWALD COEFFICIENT       0.257952
Info: PME INTERPOLATION ORDER     4
Info: PME GRID DIMENSIONS         80 96 80
Info: PME MAXIMUM GRID SPACING    1
Info: FULL ELECTROSTATIC EVALUATION FREQUENCY      2
Info: USING VERLET I (r-RESPA) MTS SCHEME.
Info: C1 SPLITTING OF LONG RANGE ELECTROSTATICS
Info: PLACING ATOMS IN PATCHES BY HYDROGEN GROUPS
Info: RIGID BONDS TO HYDROGEN : WATER
Info:         ERROR TOLERANCE : 1e-05
Info:          MAX ITERATIONS : 100
Info: RIGID WATER USING SETTLE ALGORITHM
Info: RANDOM NUMBER SEED     1503713721
Info: USE HYDROGEN BONDS?    NO
Info: Using AMBER format force field!
Info: AMBER PARM FILE        ../build/complex.top
Info: COORDINATE PDB         ../replicas/rep104/equilibration/eq1.coor
Info: Exclusions in PARM file will be ignored!
Info: SCNB (VDW SCALING)     2
Info: USING ARITHMETIC MEAN TO COMBINE L-J SIGMA PARAMETERS
Info: SUMMARY OF PARAMETERS:
Info: 71 BONDS
Info: 145 ANGLES
Info: 76 DIHEDRAL
Info: 0 IMPROPER
Info: 0 CROSSTERM
Info: 0 VDW
Info: 190 VDW_PAIRS
Info: 0 NBTHOLE_PAIRS
Info: STRUCTURE SUMMARY:
Info: 49394 ATOMS
Info: 49448 BONDS
Info: 8698 ANGLES
Info: 18780 DIHEDRALS
Info: 0 IMPROPERS
Info: 0 CROSSTERMS
Info: 0 EXCLUSIONS
Info: 2336 CONSTRAINTS
Info: 44667 RIGID BONDS
Info: 103515 DEGREES OF FREEDOM
Info: 17225 HYDROGEN GROUPS
Info: 4 ATOMS IN LARGEST HYDROGEN GROUP
Info: 17225 MIGRATION GROUPS
Info: 4 ATOMS IN LARGEST MIGRATION GROUP
Info: TOTAL MASS = 301478 amu
Info: TOTAL CHARGE = 1.00115e-05 e
Info: MASS DENSITY = 0.935846 g/cm^3
Info: ATOM DENSITY = 0.0923345 atoms/A^3
Info: ADDED 70656 IMPLICIT EXCLUSIONS
Info: NONBONDED TABLE R-SQUARED SPACING: 0.0625
Info: NONBONDED TABLE SIZE: 769 POINTS
Info: REMOVING COM VELOCITY 0.00868408 -0.00581037 0.0277985
TCL: Running for 5000 steps
ETITLE: TS BOND ANGLE DIHED IMPRP ELECT VDW BOUNDARY MISC KINETIC TOTAL TEMP POTENTIAL TOTAL3 TEMPAVG PRESSURE GPRESSURE VOLUME PRESSAVG GPRESSAVG
ENERGY: 0 395.0666 1225.3556 2928.4610 0.0000 -212823.6752 29669.7362 0.0000 0.0000 10005.8416 -168599.2141 97.2838 -178605.0557 -168589.3954 97.2838 -2329.2501 -2432.4152 534946.2959 -2329.2501 -2432.4152
ENERGY: 1000 1235.9141 1953.3322 3107.9305 0.0000 -193423.7361 26348.8281 758.7520 0.0000 24105.6192 -135913.3600 234.3718 -160018.9791 -135890.5116 218.8463 -89.7581 -34.7987 522611.9388 -13.6208 -13.5500
ENERGY: 2000 1417.4150 2146.4632 3130.4860 0.0000 -183989.4414 23237.2167 792.9607 0.0000 27678.8990 -125586.0007 269.1138 -153264.8998 -125549.5348 263.5343 -150.1289 -15.2173 516825.3512 -31.0661 -31.0446
ENERGY: 3000 1525.3093 2155.5168 3118.2397 0.0000 -178849.8101 21418.1528 811.5873 0.0000 29490.2551 -120330.7490 286.7250 -149821.0041 -120285.5189 283.8887 -65.3584 7.3878 512283.9556 -7.5131 -7.8579
ENERGY: 4000 1452.5550 2235.2253 3107.1509 0.0000 -176530.8288 20512.2726 771.3980 0.0000 30246.3653 -118205.8618 294.0765 -148452.2271 -118159.9666 292.1141 75.9884 8.2683 506905.9821 -25.6388 -25.4084
ENERGY: 5000 1548.2839 2274.4517 3136.3909 0.0000 -175852.1655 20286.4571 810.9997 0.0000 30474.0686 -117321.5136 296.2904 -147795.5822 -117277.1475 296.5955 -118.0491 -25.9557 504685.1735 -17.5744 -17.8875
TCL: Setting parameter constraintScaling to 5.0
TCL: Running for 5000 steps
ETITLE: TS BOND ANGLE DIHED IMPRP ELECT VDW BOUNDARY MISC KINETIC TOTAL TEMP POTENTIAL TOTAL3 TEMPAVG PRESSURE GPRESSURE VOLUME PRESSAVG GPRESSAVG
ENERGY: 5000 1548.2839 2274.4517 3136.3909 0.0000 -175852.1655 20286.4571 405.4998 0.0000 30472.0116 -117729.0705 296.2704 -148201.0821 -117685.0252 296.2704 -183.3620 -87.7018 504685.1735 -183.3620 -87.7018
ENERGY: 6000 1595.9389 2333.8669 3149.5316 0.0000 -175329.1433 20261.7950 665.7373 0.0000 30704.4910 -116617.7825 298.5307 -147322.2735 -116566.4765 299.0314 -42.7870 51.6409 503829.7301 -3.1962 -3.4281
ENERGY: 7000 1570.2193 2293.0264 3140.6971 0.0000 -175140.2752 20109.9898 644.0186 0.0000 30953.7059 -116428.6181 300.9537 -147382.3240 -116383.1226 300.7358 -37.8828 -4.0515 502099.4914 -11.5349 -11.6415
ENERGY: 8000 1602.2691 2265.1885 3167.2141 0.0000 -175049.2290 19947.1731 641.7866 0.0000 30823.1312 -116602.4665 299.6842 -147425.5977 -116556.0181 300.4500 -10.4477 -21.7400 503876.0904 12.7896 13.4370
ENERGY: 9000 1557.5607 2284.6377 3171.2775 0.0000 -175559.9342 20130.1329 645.0331 0.0000 30892.5777 -116878.7147 300.3594 -147771.2923 -116837.0093 299.2532 29.7999 -17.8884 502053.8725 2.3661 2.7490
ENERGY: 10000 1605.2159 2305.6261 3157.4205 0.0000 -175185.3828 19913.1984 678.9489 0.0000 30530.9193 -116994.0537 296.8431 -147524.9729 -116964.7700 299.0954 -64.1090 -35.1681 502310.2461 10.3097 10.0666
TCL: Setting parameter constraintScaling to 2.5
TCL: Running for 5000 steps
ETITLE: TS BOND ANGLE DIHED IMPRP ELECT VDW BOUNDARY MISC KINETIC TOTAL TEMP POTENTIAL TOTAL3 TEMPAVG PRESSURE GPRESSURE VOLUME PRESSAVG GPRESSAVG
ENERGY: 10000 1605.2159 2305.6261 3157.4205 0.0000 -175185.3828 19913.1984 339.4744 0.0000 30528.8436 -117335.6037 296.8229 -147864.4473 -117290.9066 296.8229 -157.6818 -133.6488 502310.2461 -157.6818 -133.6488
ENERGY: 11000 1626.5628 2405.9937 3190.6739 0.0000 -175082.3292 19771.4539 510.1739 0.0000 30933.3691 -116644.1018 300.7560 -147577.4709 -116597.8376 299.7570 3.3371 -3.5356 500049.3535 -4.5972 -4.5980
ENERGY: 12000 1614.9921 2375.0929 3160.9220 0.0000 -175500.5115 19866.9651 500.4906 0.0000 30694.6244 -117287.4244 298.4348 -147982.0488 -117255.7325 298.7396 62.9556 19.3905 498103.9571 -18.3140 -17.8276
ENERGY: 13000 1628.1171 2362.3273 3151.0198 0.0000 -175937.5468 20074.5715 514.4715 0.0000 30789.8745 -117417.1652 299.3609 -148207.0397 -117372.1648 298.5996 -70.0469 8.4315 498918.1225 2.9900 3.1500
ENERGY: 14000 1566.4819 2377.8507 3183.0156 0.0000 -176033.8824 20330.1072 503.6037 0.0000 31218.7441 -116854.0792 303.5306 -148072.8233 -116799.3697 299.8658 28.1482 46.7590 500104.4436 7.7254 8.1879
ENERGY: 15000 1648.3364 2388.6603 3176.5983 0.0000 -175475.0123 19779.4726 535.5606 0.0000 30770.1684 -117176.2157 299.1693 -147946.3841 -117124.1404 299.4786 -6.9643 -4.3405 499108.2035 5.2000 5.2212
TCL: Setting parameter constraintScaling to 1.25
TCL: Running for 5000 steps
ETITLE: TS BOND ANGLE DIHED IMPRP ELECT VDW BOUNDARY MISC KINETIC TOTAL TEMP POTENTIAL TOTAL3 TEMPAVG PRESSURE GPRESSURE VOLUME PRESSAVG GPRESSAVG
ENERGY: 15000 1648.3364 2388.6603 3176.5983 0.0000 -175475.0123 19779.4726 267.7803 0.0000 30768.1152 -117446.0492 299.1493 -148214.1644 -117402.1031 299.1493 -115.3944 -117.8824 499108.2035 -115.3944 -117.8824
ENERGY: 16000 1647.5238 2354.9427 3202.0339 0.0000 -175931.4425 20158.4489 410.9612 0.0000 31027.9912 -117129.5407 301.6760 -148157.5319 -117096.7493 300.0361 26.7168 18.0185 498997.7079 -1.3146 -1.3702
ENERGY: 17000 1633.4847 2351.0625 3173.8384 0.0000 -175998.0647 20252.9605 395.0222 0.0000 31102.2166 -117089.4799 302.3977 -148191.6965 -117044.3872 300.8231 84.8183 81.0492 499553.3565 2.8688 3.0260
ENERGY: 18000 1706.6024 2373.4331 3189.4964 0.0000 -175890.1499 20310.6930 406.7273 0.0000 30973.7617 -116929.4359 301.1487 -147903.1976 -116884.5910 300.3363 45.2191 69.9087 498831.2837 -1.6001 -1.6569
ENERGY: 19000 1634.8470 2396.7107 3212.6380 0.0000 -175260.8875 19869.0797 401.3505 0.0000 30845.4312 -116900.8305 299.9010 -147746.2616 -116857.4041 300.8215 53.0728 42.4914 498049.2302 -16.2899 -16.2884
ENERGY: 20000 1578.9342 2468.1753 3190.2146 0.0000 -175651.5538 20092.9903 413.0849 0.0000 31031.9179 -116876.2367 301.7142 -147908.1546 -116835.8119 300.6785 -7.9524 25.8528 498376.1792 2.0318 1.8961
TCL: Setting parameter constraintScaling to 0.625
TCL: Running for 5000 steps
ETITLE: TS BOND ANGLE DIHED IMPRP ELECT VDW BOUNDARY MISC KINETIC TOTAL TEMP POTENTIAL TOTAL3 TEMPAVG PRESSURE GPRESSURE VOLUME PRESSAVG GPRESSAVG
ENERGY: 20000 1578.9342 2468.1753 3190.2146 0.0000 -175651.5538 20092.9903 206.5424 0.0000 31029.8933 -117084.8037 301.6945 -148114.6970 -117044.8861 301.6945 -21.0424 6.9005 498376.1792 -21.0424 6.9005
ENERGY: 21000 1639.5144 2334.2503 3188.2610 0.0000 -175643.5581 19952.8505 313.1032 0.0000 30998.4736 -117217.1052 301.3890 -148215.5788 -117175.4382 298.7467 -44.8188 -26.7236 498692.3872 -5.6319 -5.6956
ENERGY: 22000 1625.3232 2385.8432 3203.0713 0.0000 -175754.9436 20286.7734 316.0249 0.0000 30789.2838 -117148.6238 299.3551 -147937.9076 -117108.1120 299.2689 -41.2138 -22.4598 499698.7371 9.1964 9.7403
ENERGY: 23000 1597.5512 2407.9311 3223.1033 0.0000 -175512.7160 20054.9395 322.4175 0.0000 30939.2029 -116967.5705 300.8127 -147906.7734 -116926.9314 299.7122 24.7237 -6.2661 500405.0789 5.8949 5.4228
ENERGY: 24000 1642.9640 2405.2202 3220.8884 0.0000 -175439.3617 19898.8242 322.2087 0.0000 30668.9357 -117280.3205 298.1850 -147949.2562 -117243.6730 298.8061 16.7212 -39.3301 498718.3751 -0.0497 -0.2495
ENERGY: 25000 1653.6496 2423.3592 3203.3207 0.0000 -175505.0002 19897.1313 306.5794 0.0000 30851.8693 -117169.0907 299.9636 -148020.9599 -117125.6670 300.2113 -129.1582 -34.1392 499266.0760 -2.9944 -2.8575
TCL: Setting parameter constraintScaling to 0.3125
TCL: Running for 5000 steps
ETITLE: TS BOND ANGLE DIHED IMPRP ELECT VDW BOUNDARY MISC KINETIC TOTAL TEMP POTENTIAL TOTAL3 TEMPAVG PRESSURE GPRESSURE VOLUME PRESSAVG GPRESSAVG
ENERGY: 25000 1653.6496 2423.3592 3203.3207 0.0000 -175505.0001 19897.1313 153.2897 0.0000 30849.8246 -117324.4250 299.9437 -148174.2496 -117283.1416 299.9437 -163.7945 -79.1228 499266.0760 -163.7945 -79.1228
ENERGY: 26000 1664.9457 2414.9672 3198.9455 0.0000 -175773.4698 20210.0949 230.9437 0.0000 30585.2841 -117468.2885 297.3717 -148053.5727 -117416.4599 299.1925 -0.7156 7.6462 498123.5511 -13.4803 -13.2478
ENERGY: 27000 1595.9518 2436.1292 3201.0726 0.0000 -175938.7513 20163.4624 256.2973 0.0000 30965.5407 -117320.2972 301.0688 -148285.8379 -117277.1716 299.9844 74.0780 31.9179 498513.3905 8.7812 8.5893
ENERGY: 28000 1667.5659 2427.9805 3196.8951 0.0000 -175999.4674 20245.9570 228.7020 0.0000 30892.1028 -117340.2640 300.3548 -148232.3668 -117292.2537 299.5338 68.3537 40.9187 498837.9705 -0.4026 -0.5172
ENERGY: 29000 1651.1972 2410.2605 3185.4799 0.0000 -175803.0257 20066.6419 254.7086 0.0000 31176.8636 -117057.8740 303.1234 -148234.7376 -117008.3135 299.7823 -48.5078 8.3002 498581.6522 -2.4498 -2.1296
ENERGY: 30000 1655.7206 2377.1881 3214.3503 0.0000 -175157.4095 19913.1096 256.1736 0.0000 30975.2288 -116765.6385 301.1630 -147740.8674 -116713.7735 301.2993 19.9503 22.8179 498499.8709 4.4997 4.5405
TCL: Setting parameter constraintScaling to 0.15625
TCL: Running for 5000 steps
ETITLE: TS BOND ANGLE DIHED IMPRP ELECT VDW BOUNDARY MISC KINETIC TOTAL TEMP POTENTIAL TOTAL3 TEMPAVG PRESSURE GPRESSURE VOLUME PRESSAVG GPRESSAVG
ENERGY: 30000 1655.7206 2377.1881 3214.3503 0.0000 -175157.4096 19913.1096 128.0868 0.0000 30973.2003 -116895.7539 301.1433 -147868.9542 -116853.6040 301.1433 4.1416 -4.1298 498499.8709 4.1416 -4.1298
ENERGY: 31000 1640.1543 2436.2771 3224.3745 0.0000 -175387.6784 19787.0449 209.0422 0.0000 30837.7143 -117253.0711 299.8260 -148090.7854 -117211.8403 299.7125 -53.1745 -55.0960 497448.6313 1.7892 1.4134
ENERGY: 32000 1631.8855 2373.9019 3211.7531 0.0000 -175762.4921 20096.5422 192.7045 0.0000 30790.9174 -117464.7876 299.3710 -148255.7050 -117411.2946 299.9426 22.9814 -25.1168 497357.9001 5.0824 4.6965
ENERGY: 33000 1618.8978 2428.4797 3170.5562 0.0000 -175573.8413 20027.4250 182.6553 0.0000 30887.0136 -117258.8135 300.3053 -148145.8271 -117210.2118 299.6260 -61.6083 1.4657 497518.7141 13.2795 13.2550
ENERGY: 34000 1623.0041 2371.9746 3227.0185 0.0000 -175315.7999 19769.5429 191.4686 0.0000 30768.4609 -117364.3303 299.1527 -148132.7912 -117322.9276 300.5230 0.1720 -24.5945 497650.5701 2.0092 1.5656
ENERGY: 35000 1686.6628 2377.5621 3231.5169 0.0000 -175855.8966 20050.1030 218.2917 0.0000 30794.8440 -117496.9162 299.4092 -148291.7602 -117449.4474 300.0420 -110.5389 -32.5884 497083.8559 -5.1278 -5.2783
TCL: Setting parameter constraintScaling to 0.078125
TCL: Running for 5000 steps
ETITLE: TS BOND ANGLE DIHED IMPRP ELECT VDW BOUNDARY MISC KINETIC TOTAL TEMP POTENTIAL TOTAL3 TEMPAVG PRESSURE GPRESSURE VOLUME PRESSAVG GPRESSAVG
ENERGY: 35000 1686.6628 2377.5621 3231.5169 0.0000 -175855.8966 20050.1030 109.1459 0.0000 30792.7909 -117608.1151 299.3892 -148400.9060 -117569.4502 299.3892 -153.4190 -76.0357 497083.8559 -153.4190 -76.0357
ENERGY: 36000 1637.1984 2412.5953 3212.4893 0.0000 -176074.1173 20143.3711 148.0040 0.0000 30643.2278 -117877.2315 297.9351 -148520.4593 -117830.0473 299.3523 -26.0720 40.7256 496623.9174 0.6399 0.6971
ENERGY: 37000 1603.1725 2329.1204 3209.1242 0.0000 -175543.3398 19788.1217 160.1817 0.0000 30900.9689 -117552.6505 300.4410 -148453.6194 -117505.5995 299.4446 -275.8070 -117.5952 496052.0149 -1.7063 -1.4863
ENERGY: 38000 1636.5475 2411.2518 3195.0785 0.0000 -176089.5635 20325.1706 164.8462 0.0000 30795.4552 -117561.2137 299.4151 -148356.6689 -117524.8548 299.7795 -89.7796 23.5260 496355.8361 -1.6351 -1.7122
ENERGY: 39000 1615.9621 2364.8159 3184.7973 0.0000 -176114.7389 19982.3902 161.4721 0.0000 30825.9953 -117979.3061 299.7121 -148805.3013 -117939.6249 298.9339 33.2569 -0.0966 495450.3936 -8.9000 -8.7920
ENERGY: 40000 1639.8338 2418.1002 3183.9233 0.0000 -176106.5411 20124.0598 169.3169 0.0000 30674.3826 -117896.9245 298.2380 -148571.3070 -117850.6286 297.0533 10.0958 55.9429 495447.3938 -7.7636 -7.9265
TCL: Setting parameter constraintScaling to 0.0390625
TCL: Running for 5000 steps
ETITLE: TS BOND ANGLE DIHED IMPRP ELECT VDW BOUNDARY MISC KINETIC TOTAL TEMP POTENTIAL TOTAL3 TEMPAVG PRESSURE GPRESSURE VOLUME PRESSAVG GPRESSAVG
ENERGY: 40000 1639.8338 2418.1002 3183.9233 0.0000 -176106.5411 20124.0598 84.6585 0.0000 30672.3254 -117983.6401 298.2180 -148655.9655 -117943.1184 298.2180 1.6109 51.1215 495447.3938 1.6109 51.1215
ENERGY: 41000 1600.9495 2380.4569 3187.1881 0.0000 -176188.7649 20045.1276 111.9218 0.0000 30735.7406 -118127.3804 298.8345 -148863.1210 -118089.1591 297.8802 -95.2651 -38.5425 496459.5778 15.3621 14.8460
ENERGY: 42000 1622.4627 2452.5003 3176.3832 0.0000 -176243.1387 20093.6501 120.6694 0.0000 30944.7778 -117832.6952 300.8669 -148777.4730 -117794.2324 299.1994 -160.1477 -51.8760 494754.5159 -7.0884 -7.2070
ENERGY: 43000 1672.4977 2449.7257 3203.9935 0.0000 -176339.8998 20221.0039 114.9564 0.0000 31032.6391 -117645.0835 301.7212 -148677.7226 -117599.0569 300.2356 23.2162 -20.2482 495776.3063 -0.8686 -0.8686
ENERGY: 44000 1652.3766 2372.9344 3210.2942 0.0000 -176021.6576 20153.3444 120.2660 0.0000 30806.2817 -117706.1603 299.5204 -148512.4420 -117658.2802 300.3027 -32.1941 146.8271 494932.1370 -9.2753 -9.2310
ENERGY: 45000 1628.3698 2393.3204 3202.9062 0.0000 -175839.0845 19930.8515 124.9999 0.0000 30813.6770 -117744.9597 299.5923 -148558.6367 -117709.3586 300.4475 0.2140 17.7123 495691.5698 -2.5297 -2.0901
TCL: Setting parameter constraintScaling to 0.01953125
TCL: Running for 5000 steps
ETITLE: TS BOND ANGLE DIHED IMPRP ELECT VDW BOUNDARY MISC KINETIC TOTAL TEMP POTENTIAL TOTAL3 TEMPAVG PRESSURE GPRESSURE VOLUME PRESSAVG GPRESSAVG
ENERGY: 45000 1628.3698 2393.3204 3202.9062 0.0000 -175839.0845 19930.8515 62.4999 0.0000 30811.6288 -117809.5078 299.5724 -148621.1366 -117769.0730 299.5724 -29.6599 -3.2417 495691.5698 -29.6599 -3.2417
ENERGY: 46000 1654.2563 2338.2153 3212.3937 0.0000 -175984.4976 20114.1896 70.6187 0.0000 30996.2914 -117598.5325 301.3678 -148594.8240 -117547.2967 299.0718 12.3706 65.5366 496859.2213 8.3870 8.3640
ENERGY: 47000 1646.9489 2438.6496 3213.7946 0.0000 -175630.5711 19993.4168 77.7343 0.0000 30785.3135 -117474.7135 299.3165 -148260.0270 -117436.1122 300.1839 -16.9841 39.9610 497914.7044 -0.2862 -0.1717
ENERGY: 48000 1634.9677 2392.7532 3187.5408 0.0000 -175623.7863 19834.1907 79.0454 0.0000 30783.5985 -117711.6900 299.2998 -148495.2886 -117663.4532 298.8292 -45.9155 81.1791 497424.3576 -4.7166 -4.5156
ENERGY: 49000 1612.6422 2340.1281 3180.2343 0.0000 -175872.2109 20091.2783 87.6816 0.0000 30772.6052 -117787.6412 299.1930 -148560.2463 -117744.1658 300.4924 2.7089 9.0152 497241.6312 11.3793 11.6429
ENERGY: 50000 1628.8933 2467.4462 3208.7350 0.0000 -175898.9717 20097.9007 92.2186 0.0000 30796.6741 -117607.1036 299.4270 -148403.7777 -117565.7746 299.6619 22.4039 39.9641 497172.5450 2.4541 2.1580
TCL: Setting parameter constraintScaling to 0
TCL: Running for 5000 steps
ETITLE: TS BOND ANGLE DIHED IMPRP ELECT VDW BOUNDARY MISC KINETIC TOTAL TEMP POTENTIAL TOTAL3 TEMPAVG PRESSURE GPRESSURE VOLUME PRESSAVG GPRESSAVG
ENERGY: 50000 1628.8933 2467.4462 3208.7350 0.0000 -175898.9717 20097.9007 0.0000 0.0000 30794.6517 -117701.3446 299.4073 -148495.9963 -117663.6960 299.4073 4.9059 25.5012 497172.5450 4.9059 25.5012
ENERGY: 51000 1645.2494 2429.8426 3193.8900 0.0000 -175931.5927 19916.9420 0.0000 0.0000 30804.9429 -117940.7258 299.5074 -148745.6687 -117908.0479 299.8511 -38.7408 -48.8964 496433.2421 2.2270 1.9945
ENERGY: 52000 1666.1221 2387.6196 3160.7197 0.0000 -175979.2348 20014.2426 0.0000 0.0000 30849.4801 -117901.0506 299.9404 -148750.5307 -117863.1435 299.9328 -84.7320 25.1986 497443.2568 4.3106 5.0679
ENERGY: 53000 1661.5271 2445.1222 3198.2719 0.0000 -176192.1968 20109.9577 0.0000 0.0000 30717.5768 -118059.7411 298.6579 -148777.3179 -118006.6694 299.3024 -21.3820 5.2852 496058.8372 -7.6817 -8.0548
ENERGY: 54000 1637.4565 2406.6642 3170.3949 0.0000 -176402.7414 20176.4448 0.0000 0.0000 30725.4748 -118286.3062 298.7347 -149011.7810 -118230.7141 298.6073 -137.0031 -38.8096 496320.3832 3.1980 3.2685
ENERGY: 55000 1643.2817 2376.8194 3194.4341 0.0000 -176026.4307 19827.5563 0.0000 0.0000 30711.9368 -118272.4023 298.6031 -148984.3391 -118217.3215 299.1790 -186.0006 -138.6575 496844.5636 10.1826 10.1921
