Info: SIMULATION PARAMETERS:
Info: TIMESTEP               1
Info: NUMBER OF STEPS        0
Info: STEPS PER CYCLE        10
Info: PERIODIC CELL BASIS 1  72.449 0 0
Info: PERIODIC CELL BASIS 2  0 93.247 0
Info: PERIODIC CELL BASIS 3  0 0 79.185
Info: PERIODIC CELL CENTER   -0.248 -0.156 -0.047
Info: WRAPPING WATERS AROUND PERIODIC BOUNDARIES ON OUTPUT.
Info: WRAPPING ALL CLUSTERS AROUND PERIODIC BOUNDARIES ON OUTPUT.
Info: FIRST LDB TIMESTEP     50
Info: LAST LDB TIMESTEP     -1
Info: HOM BACKGROUND SCALING 1
Info: PME BACKGROUND SCALING 1
Info: MIN ATOMS PER PATCH    40
Info: VELOCITY FILE          ../replicas/rep60/equilibration/eq1.vel
Info: CENTER OF MASS MOVING INITIALLY? NO
Info: DIELECTRIC             1
Info: EXCLUDE                SCALED ONE-FOUR
Info: 1-4 ELECTROSTATICS SCALED BY 0.833333
Info: MODIFIED 1-4 VDW PARAMETERS WILL BE USED
Info: DCD FILENAME           ../replicas/rep60/equilibration/eq2.dcd
Info: DCD FREQUENCY          5000
Info: DCD FIRST STEP         5000
Info: DCD FILE WILL CONTAIN UNIT CELL DATA
Info: XST FILENAME           ../replicas/rep60/equilibration/eq2.xst
Info: XST FREQUENCY          5000
Info: NO VELOCITY DCD OUTPUT
Info: NO FORCE DCD OUTPUT
Info: OUTPUT FILENAME        ../replicas/rep60/equilibration/eq2
Info: RESTART FILENAME       ../replicas/rep60/equilibration/eq2.restart
Info: RESTART FREQUENCY      5000
Info: BINARY RESTART FILES WILL BE USED
Info: SWITCHING ACTIVE
Info: SWITCHING ON           10
Info: SWITCHING OFF          12
Info: PAIRLIST DISTANCE      13.5
Info: PAIRLIST SHRINK RATE   0.01
Info: PAIRLIST GROW RATE     0.01
Info: PAIRLIST TRIGGER       0.3
Info: PAIRLISTS PER CYCLE    2
Info: PAIRLISTS ENABLED
Info: MARGIN                 0.48
Info: HYDROGEN GROUP CUTOFF  2.5
Info: PATCH DIMENSION        16.48
Info: ENERGY OUTPUT STEPS    500
Info: CROSSTERM ENERGY INCLUDED IN DIHEDRAL
Info: TIMING OUTPUT STEPS    5000
Info: PRESSURE OUTPUT STEPS  500
Info: HARMONIC CONSTRAINTS ACTIVE
Info: HARMONIC CONS EXP      2
Info: HARMONIC CONS SCALING  10
Info: LANGEVIN DYNAMICS ACTIVE
Info: LANGEVIN TEMPERATURE   300
Info: LANGEVIN USING BBK INTEGRATOR
Info: LANGEVIN DAMPING COEFFICIENT IS 5 INVERSE PS
Info: LANGEVIN DYNAMICS NOT APPLIED TO HYDROGENS
Info: BERENDSEN PRESSURE COUPLING ACTIVE
Info:     TARGET PRESSURE IS 1 BAR
Info:     COMPRESSIBILITY ESTIMATE IS 4.57e-05 BAR^(-1)
Info:     RELAXATION TIME IS 100 FS
Info:     APPLIED EVERY 2 STEPS
Info:     PRESSURE CONTROL IS GROUP-BASED
Info:       CELL FLUCTUATION IS ISOTROPIC
Info: PARTICLE MESH EWALD (PME) ACTIVE
Info: PME TOLERANCE               1e-06
Info: PME EWALD COEFFICIENT       0.257952
Info: PME INTERPOLATION ORDER     4
Info: PME GRID DIMENSIONS         80 96 80
Info: PME MAXIMUM GRID SPACING    1
Info: FULL ELECTROSTATIC EVALUATION FREQUENCY      2
Info: USING VERLET I (r-RESPA) MTS SCHEME.
Info: C1 SPLITTING OF LONG RANGE ELECTROSTATICS
Info: PLACING ATOMS IN PATCHES BY HYDROGEN GROUPS
Info: RIGID BONDS TO HYDROGEN : WATER
Info:         ERROR TOLERANCE : 1e-05
Info:          MAX ITERATIONS : 100
Info: RIGID WATER USING SETTLE ALGORITHM
Info: RANDOM NUMBER SEED     1503693572
Info: USE HYDROGEN BONDS?    NO
Info: Using AMBER format force field!
Info: AMBER PARM FILE        ../build/complex.top
Info: COORDINATE PDB         ../replicas/rep60/equilibration/eq1.coor
Info: Exclusions in PARM file will be ignored!
Info: SCNB (VDW SCALING)     2
Info: USING ARITHMETIC MEAN TO COMBINE L-J SIGMA PARAMETERS
Info: SUMMARY OF PARAMETERS:
Info: 71 BONDS
Info: 145 ANGLES
Info: 76 DIHEDRAL
Info: 0 IMPROPER
Info: 0 CROSSTERM
Info: 0 VDW
Info: 190 VDW_PAIRS
Info: 0 NBTHOLE_PAIRS
Info: STRUCTURE SUMMARY:
Info: 49394 ATOMS
Info: 49448 BONDS
Info: 8698 ANGLES
Info: 18780 DIHEDRALS
Info: 0 IMPROPERS
Info: 0 CROSSTERMS
Info: 0 EXCLUSIONS
Info: 2336 CONSTRAINTS
Info: 44667 RIGID BONDS
Info: 103515 DEGREES OF FREEDOM
Info: 17225 HYDROGEN GROUPS
Info: 4 ATOMS IN LARGEST HYDROGEN GROUP
Info: 17225 MIGRATION GROUPS
Info: 4 ATOMS IN LARGEST MIGRATION GROUP
Info: TOTAL MASS = 301478 amu
Info: TOTAL CHARGE = 1.00115e-05 e
Info: MASS DENSITY = 0.935846 g/cm^3
Info: ATOM DENSITY = 0.0923345 atoms/A^3
Info: ADDED 70656 IMPLICIT EXCLUSIONS
Info: NONBONDED TABLE R-SQUARED SPACING: 0.0625
Info: NONBONDED TABLE SIZE: 769 POINTS
Info: REMOVING COM VELOCITY 0.00722897 -0.0120126 0.0127838
TCL: Running for 5000 steps
ETITLE: TS BOND ANGLE DIHED IMPRP ELECT VDW BOUNDARY MISC KINETIC TOTAL TEMP POTENTIAL TOTAL3 TEMPAVG PRESSURE GPRESSURE VOLUME PRESSAVG GPRESSAVG
ENERGY: 0 384.7658 1200.2672 2915.4677 0.0000 -212711.3568 29539.4539 0.0000 0.0000 10064.8073 -168606.5949 97.8571 -178671.4022 -168597.2212 97.8571 -2417.9369 -2513.2539 534946.2959 -2417.9369 -2513.2539
ENERGY: 1000 1250.3210 2003.8724 3109.7251 0.0000 -193725.3556 26494.1839 774.4824 0.0000 24274.0482 -135818.7226 236.0094 -160092.7708 -135794.7532 218.6706 -74.6607 -42.1268 521483.7220 -24.4412 -24.6543
ENERGY: 2000 1465.8856 2170.2068 3124.7693 0.0000 -183705.2097 23045.4278 815.3448 0.0000 27637.5492 -125446.0262 268.7117 -153083.5754 -125410.8226 263.9955 2.3822 -12.3411 517468.3638 -21.8670 -22.2660
ENERGY: 3000 1563.8654 2163.8426 3128.1747 0.0000 -179416.8950 21857.7836 830.4173 0.0000 29656.0039 -120216.8076 288.3366 -149872.8115 -120177.4601 284.3748 -131.4791 -7.2964 511262.0409 -23.7513 -23.7231
ENERGY: 4000 1594.1270 2254.3486 3147.5684 0.0000 -177044.4159 20868.6170 829.9750 0.0000 30212.7274 -118137.0525 293.7494 -148349.7799 -118099.1709 292.0614 -118.3756 -40.5808 507823.5975 -8.7066 -8.9063
ENERGY: 5000 1640.4841 2249.5421 3167.5272 0.0000 -176373.0693 20666.6099 804.1587 0.0000 30725.6001 -117119.1473 298.7359 -147844.7474 -117082.1734 296.9269 -72.4733 -12.5392 504206.0286 -15.7764 -15.6086
TCL: Setting parameter constraintScaling to 5.0
TCL: Running for 5000 steps
ETITLE: TS BOND ANGLE DIHED IMPRP ELECT VDW BOUNDARY MISC KINETIC TOTAL TEMP POTENTIAL TOTAL3 TEMPAVG PRESSURE GPRESSURE VOLUME PRESSAVG GPRESSAVG
ENERGY: 5000 1640.4841 2249.5421 3167.5272 0.0000 -176373.0693 20666.6099 402.0793 0.0000 30723.5479 -117523.2789 298.7160 -148246.8267 -117484.2811 298.7160 -90.1014 -33.6543 504206.0286 -90.1014 -33.6543
ENERGY: 6000 1562.6601 2371.2196 3127.3888 0.0000 -175779.2751 20177.1748 650.8107 0.0000 30884.4703 -117005.5509 300.2806 -147890.0212 -116960.7293 298.0696 -6.6259 -16.9838 504372.4149 0.2691 -0.0038
ENERGY: 7000 1579.2779 2287.4483 3130.3382 0.0000 -175475.7405 20044.7655 617.1140 0.0000 30467.2654 -117349.5313 296.2242 -147816.7967 -117302.8885 298.0789 53.6277 23.9968 501721.7648 -8.9328 -8.3547
ENERGY: 8000 1620.5182 2331.3986 3130.2755 0.0000 -175513.6940 20006.3066 647.1918 0.0000 30740.9222 -117037.0811 298.8849 -147778.0033 -116990.5539 297.9139 6.1116 0.9816 500758.9210 1.9177 1.4833
ENERGY: 9000 1655.2307 2329.2462 3160.4552 0.0000 -175462.0437 20020.8652 653.8621 0.0000 30858.0081 -116784.3763 300.0233 -147642.3844 -116741.1945 299.6862 -62.3478 -11.9304 501291.0588 0.0798 0.3982
ENERGY: 10000 1609.7705 2361.7865 3127.0413 0.0000 -175667.6912 19912.2585 644.0078 0.0000 30898.2648 -117114.5618 300.4147 -148012.8266 -117074.6019 298.5188 -55.7176 11.0793 499105.0919 1.9282 1.7589
TCL: Setting parameter constraintScaling to 2.5
TCL: Running for 5000 steps
ETITLE: TS BOND ANGLE DIHED IMPRP ELECT VDW BOUNDARY MISC KINETIC TOTAL TEMP POTENTIAL TOTAL3 TEMPAVG PRESSURE GPRESSURE VOLUME PRESSAVG GPRESSAVG
ENERGY: 10000 1609.7705 2361.7865 3127.0413 0.0000 -175667.6912 19912.2585 322.0039 0.0000 30896.2052 -117438.6253 300.3947 -148334.8305 -117393.7527 300.3947 -147.3390 -82.8960 499105.0919 -147.3390 -82.8960
ENERGY: 11000 1650.7183 2342.4090 3141.4275 0.0000 -175519.7981 20021.3399 510.7164 0.0000 31007.0987 -116846.0883 301.4729 -147853.1870 -116804.6501 300.3925 -58.1423 -24.4722 498279.5749 0.4574 1.5248
ENERGY: 12000 1644.0706 2338.7174 3138.3366 0.0000 -175394.0998 19831.3324 506.7564 0.0000 31170.1159 -116764.7706 303.0578 -147934.8864 -116714.5511 299.2306 -35.1679 -35.2476 498663.3274 -1.6571 -1.3245
ENERGY: 13000 1633.5442 2373.6541 3181.7669 0.0000 -176101.3768 20427.7191 528.0671 0.0000 30823.0222 -117133.6033 299.6831 -147956.6255 -117088.1583 299.4271 55.9387 5.3725 498628.5646 3.7341 3.4280
ENERGY: 14000 1647.9402 2360.3890 3162.9934 0.0000 -175790.8473 20098.9158 499.6755 0.0000 30616.7430 -117404.1903 297.6776 -148020.9334 -117375.9162 298.4808 -102.6587 -58.0681 498164.3518 -7.7151 -6.9924
ENERGY: 15000 1591.7830 2346.0323 3152.6209 0.0000 -176146.4260 20225.2187 519.8928 0.0000 30874.3504 -117436.5280 300.1822 -148310.8784 -117391.5232 299.4892 -44.3480 -29.6530 498737.4772 -6.3248 -6.2816
TCL: Setting parameter constraintScaling to 1.25
TCL: Running for 5000 steps
ETITLE: TS BOND ANGLE DIHED IMPRP ELECT VDW BOUNDARY MISC KINETIC TOTAL TEMP POTENTIAL TOTAL3 TEMPAVG PRESSURE GPRESSURE VOLUME PRESSAVG GPRESSAVG
ENERGY: 15000 1591.7830 2346.0323 3152.6209 0.0000 -176146.4260 20225.2187 259.9464 0.0000 30872.3247 -117698.5001 300.1625 -148570.8248 -117653.4638 300.1625 -43.2539 -30.0590 498737.4772 -43.2539 -30.0590
ENERGY: 16000 1618.8303 2417.4626 3178.5379 0.0000 -175887.1726 20087.5034 384.2749 0.0000 30728.5605 -117472.0029 298.7647 -148200.5634 -117411.6558 298.5338 -89.3387 12.8492 496224.1224 -0.3634 -0.1105
ENERGY: 17000 1648.0541 2359.4627 3189.0261 0.0000 -175412.2003 19847.2271 404.8438 0.0000 30741.8590 -117221.7275 298.8940 -147963.5864 -117182.7318 299.6378 55.2644 -10.2265 497266.4061 -11.4209 -11.5812
ENERGY: 18000 1628.0857 2346.4428 3200.8434 0.0000 -175720.3111 19947.7123 407.0474 0.0000 30772.5200 -117417.6595 299.1921 -148190.1795 -117372.2795 299.5672 -107.1191 -2.1953 498230.8484 16.8418 16.4086
ENERGY: 19000 1638.0754 2372.0773 3178.4807 0.0000 -175979.2106 20031.2401 396.5405 0.0000 30681.2322 -117681.5642 298.3046 -148362.7965 -117636.0869 299.2215 -76.3328 -53.1297 496785.3488 -1.2507 -1.9022
ENERGY: 20000 1588.2758 2391.8885 3177.6686 0.0000 -176122.6530 20096.1497 416.9405 0.0000 30866.5022 -117585.2278 300.1059 -148451.7299 -117538.5880 299.3207 34.8241 4.7137 497682.7036 -2.8278 -3.2006
TCL: Setting parameter constraintScaling to 0.625
TCL: Running for 5000 steps
ETITLE: TS BOND ANGLE DIHED IMPRP ELECT VDW BOUNDARY MISC KINETIC TOTAL TEMP POTENTIAL TOTAL3 TEMPAVG PRESSURE GPRESSURE VOLUME PRESSAVG GPRESSAVG
ENERGY: 20000 1588.2758 2391.8885 3177.6686 0.0000 -176122.6530 20096.1497 208.4702 0.0000 30864.4793 -117795.7209 300.0862 -148660.2002 -117749.8768 300.0862 -26.3409 -57.4150 497682.7036 -26.3409 -57.4150
ENERGY: 21000 1617.7388 2426.1863 3170.0831 0.0000 -175888.5334 20038.6396 307.5233 0.0000 30852.9877 -117475.3746 299.9745 -148328.3623 -117427.6871 298.7229 -43.1373 -21.7611 497190.6715 0.7483 0.7819
ENERGY: 22000 1641.8802 2408.9977 3197.3045 0.0000 -175905.1031 20057.3517 319.8958 0.0000 30927.5300 -117352.1433 300.6992 -148279.6733 -117310.9388 299.7942 -170.4648 -77.2355 497359.1903 -0.3811 -0.1915
ENERGY: 23000 1640.1388 2391.6490 3196.3896 0.0000 -176019.6157 20129.5003 318.3762 0.0000 30740.9633 -117602.5983 298.8853 -148343.5617 -117553.5160 299.5007 -27.2143 0.3491 496453.0093 5.8842 5.4611
ENERGY: 24000 1649.5442 2398.1686 3198.8045 0.0000 -176082.1246 20175.6834 323.5085 0.0000 30606.1379 -117730.2774 297.5744 -148336.4153 -117680.6224 299.6636 -89.5764 3.6691 496974.8068 -3.3758 -3.7177
ENERGY: 25000 1610.3745 2374.2068 3183.7324 0.0000 -176023.0684 20084.3261 347.9279 0.0000 30775.7415 -117646.7592 299.2234 -148422.5007 -117608.5784 299.2643 -40.9088 -49.8560 496528.8109 -11.1685 -11.5990
TCL: Setting parameter constraintScaling to 0.3125
TCL: Running for 5000 steps
ETITLE: TS BOND ANGLE DIHED IMPRP ELECT VDW BOUNDARY MISC KINETIC TOTAL TEMP POTENTIAL TOTAL3 TEMPAVG PRESSURE GPRESSURE VOLUME PRESSAVG GPRESSAVG
ENERGY: 25000 1610.3745 2374.2068 3183.7324 0.0000 -176023.0684 20084.3261 173.9640 0.0000 30773.7161 -117822.7485 299.2038 -148596.4646 -117778.5439 299.2038 -55.1042 -55.0836 496528.8109 -55.1042 -55.0836
ENERGY: 26000 1599.6445 2396.6145 3209.6388 0.0000 -175798.3272 20042.6286 243.3740 0.0000 30800.3173 -117506.1096 299.4624 -148306.4269 -117463.4592 298.6654 -45.5236 6.6820 497711.0470 11.0779 11.0244
ENERGY: 27000 1611.6711 2371.0217 3217.0274 0.0000 -175708.3146 20010.4414 259.3063 0.0000 30516.9587 -117721.8880 296.7074 -148238.8467 -117664.4123 299.1492 -55.4785 -28.7361 497002.2459 -1.8471 -1.2354
ENERGY: 28000 1597.5293 2442.1366 3226.6559 0.0000 -175776.7786 20129.5998 245.4070 0.0000 30755.9187 -117379.5313 299.0307 -148135.4500 -117332.6919 299.2355 -35.8676 -35.7879 498601.5040 6.8561 6.6186
ENERGY: 29000 1637.1640 2381.7055 3220.5383 0.0000 -175775.5032 20188.7263 233.8375 0.0000 30827.3971 -117286.1346 299.7257 -148113.5317 -117245.1287 300.5112 28.7807 9.3035 498781.2938 -3.8919 -3.8660
ENERGY: 30000 1637.6116 2438.3725 3191.2279 0.0000 -175408.5658 19918.9684 272.4207 0.0000 30942.0237 -117007.9410 300.8402 -147949.9647 -116965.1758 300.5548 77.2345 110.4654 498613.3585 -2.7569 -2.1872
TCL: Setting parameter constraintScaling to 0.15625
TCL: Running for 5000 steps
ETITLE: TS BOND ANGLE DIHED IMPRP ELECT VDW BOUNDARY MISC KINETIC TOTAL TEMP POTENTIAL TOTAL3 TEMPAVG PRESSURE GPRESSURE VOLUME PRESSAVG GPRESSAVG
ENERGY: 30000 1637.6116 2438.3725 3191.2279 0.0000 -175408.5658 19918.9684 136.2104 0.0000 30939.9926 -117146.1825 300.8204 -148086.1751 -117105.4647 300.8204 44.6652 76.6137 498613.3585 44.6652 76.6137
ENERGY: 31000 1636.0146 2393.0429 3238.1222 0.0000 -175490.6620 20195.0798 172.8401 0.0000 31048.5856 -116806.9767 301.8762 -147855.5623 -116766.3276 301.3523 77.5827 66.0433 499010.5584 8.5368 8.5314
ENERGY: 32000 1659.5365 2394.4789 3224.5018 0.0000 -175967.7478 20088.9926 194.8511 0.0000 30915.5810 -117489.8060 300.5831 -148405.3870 -117447.3575 299.7375 81.0173 27.3452 497344.0541 -3.6749 -3.6560
ENERGY: 33000 1626.7683 2412.1734 3227.5857 0.0000 -175981.8425 20086.3947 193.7106 0.0000 30848.3637 -117586.8459 299.9295 -148435.2097 -117548.3118 299.6077 -40.6151 -15.1875 497820.8362 -1.5185 -2.0766
ENERGY: 34000 1659.0849 2378.1287 3214.5641 0.0000 -175486.0986 19908.1331 199.9797 0.0000 30894.0421 -117232.1659 300.3736 -148126.2080 -117194.0103 300.3085 75.5399 41.1205 496468.6519 0.5493 0.3912
ENERGY: 35000 1616.8195 2412.7796 3213.9313 0.0000 -175466.2305 19900.1324 209.0884 0.0000 30795.4576 -117318.0216 299.4151 -148113.4793 -117271.1325 299.8103 -34.7720 -30.6004 497433.9105 -1.8912 -1.3785
TCL: Setting parameter constraintScaling to 0.078125
TCL: Running for 5000 steps
ETITLE: TS BOND ANGLE DIHED IMPRP ELECT VDW BOUNDARY MISC KINETIC TOTAL TEMP POTENTIAL TOTAL3 TEMPAVG PRESSURE GPRESSURE VOLUME PRESSAVG GPRESSAVG
ENERGY: 35000 1616.8195 2412.7796 3213.9313 0.0000 -175466.2305 19900.1324 104.5442 0.0000 30793.4346 -117424.5888 299.3955 -148218.0235 -117379.3783 299.3955 -82.4513 -78.8147 497433.9105 -82.4513 -78.8147
ENERGY: 36000 1688.6751 2447.4981 3223.6867 0.0000 -175538.2200 19858.7500 141.9524 0.0000 30979.5933 -117198.0645 301.2054 -148177.6578 -117153.3736 300.3331 32.8589 10.7075 498004.2848 4.7450 4.2665
ENERGY: 37000 1601.6292 2421.2875 3248.6254 0.0000 -175703.2086 19960.6361 149.2185 0.0000 30899.3907 -117422.4211 300.4257 -148321.8118 -117388.0725 300.1301 5.5887 73.5281 498332.4853 16.9143 16.5963
ENERGY: 38000 1606.2837 2338.1205 3194.5940 0.0000 -175645.3782 20076.1717 163.8218 0.0000 30807.4244 -117458.9621 299.5315 -148266.3865 -117414.9936 299.6707 25.3995 80.7533 497861.0987 -3.4252 -3.7016
ENERGY: 39000 1628.4519 2371.8622 3247.0866 0.0000 -176066.2243 20049.8182 176.4993 0.0000 30722.8599 -117869.6462 298.7093 -148592.5061 -117819.4283 298.8446 -57.9015 -55.2599 497144.7399 -14.0603 -13.6553
ENERGY: 40000 1655.6240 2334.0050 3188.0016 0.0000 -176358.6313 20144.4780 172.8742 0.0000 30727.6715 -118135.9772 298.7561 -148863.6486 -118091.8821 297.7457 -0.7123 -12.2700 495965.2453 -7.2156 -7.2556
TCL: Setting parameter constraintScaling to 0.0390625
TCL: Running for 5000 steps
ETITLE: TS BOND ANGLE DIHED IMPRP ELECT VDW BOUNDARY MISC KINETIC TOTAL TEMP POTENTIAL TOTAL3 TEMPAVG PRESSURE GPRESSURE VOLUME PRESSAVG GPRESSAVG
ENERGY: 40000 1655.6240 2334.0050 3188.0016 0.0000 -176358.6313 20144.4780 86.4371 0.0000 30725.6139 -118224.4718 298.7361 -148950.0857 -118181.1372 298.7361 -12.3865 -22.5519 495965.2453 -12.3865 -22.5519
ENERGY: 41000 1655.8491 2475.6938 3193.0055 0.0000 -176283.2516 20055.7201 109.5096 0.0000 30585.4804 -118207.9931 297.3736 -148793.4735 -118164.5938 297.6474 -73.0942 12.9357 496712.8449 0.1046 -0.1158
ENERGY: 42000 1671.7779 2389.1502 3186.6933 0.0000 -176362.7173 20102.6625 114.2877 0.0000 30658.0330 -118240.1126 298.0790 -148898.1457 -118194.6591 297.0447 -9.5205 15.3622 495672.3536 -0.9978 -1.0874
ENERGY: 43000 1665.2638 2449.9467 3186.8437 0.0000 -176467.6746 20171.1944 123.3050 0.0000 30668.7021 -118202.4188 298.1827 -148871.1209 -118151.4569 298.2618 -45.7052 -23.1518 495313.5517 -13.6963 -13.5595
ENERGY: 44000 1646.8507 2376.1067 3191.3702 0.0000 -175970.2182 20233.6064 122.3062 0.0000 30715.4294 -117684.5487 298.6371 -148399.9780 -117640.9717 299.2137 60.0900 32.5518 498013.7850 20.6958 20.4060
ENERGY: 45000 1628.7288 2395.5575 3153.9038 0.0000 -175978.0738 19914.5145 131.8298 0.0000 30867.6447 -117885.8947 300.1170 -148753.5394 -117827.2709 299.3857 -74.9042 -79.3634 494825.7253 -11.3258 -11.4164
TCL: Setting parameter constraintScaling to 0.01953125
TCL: Running for 5000 steps
ETITLE: TS BOND ANGLE DIHED IMPRP ELECT VDW BOUNDARY MISC KINETIC TOTAL TEMP POTENTIAL TOTAL3 TEMPAVG PRESSURE GPRESSURE VOLUME PRESSAVG GPRESSAVG
ENERGY: 45000 1628.7288 2395.5575 3153.9038 0.0000 -175978.0738 19914.5145 65.9149 0.0000 30865.5825 -117953.8719 300.0969 -148819.4543 -117906.9412 300.0969 -78.3362 -86.2568 494825.7253 -78.3362 -86.2568
ENERGY: 46000 1606.4079 2431.2245 3168.2967 0.0000 -175853.1339 19975.2477 80.7351 0.0000 30828.2898 -117762.9322 299.7344 -148591.2220 -117721.5721 299.4327 35.9231 42.6612 496298.2848 10.1061 10.3219
ENERGY: 47000 1637.3361 2432.8761 3170.4089 0.0000 -175909.6765 19944.2320 89.3434 0.0000 30815.8135 -117819.6666 299.6131 -148635.4801 -117769.8916 298.9460 5.3506 11.5281 495551.0546 -5.9821 -6.2631
ENERGY: 48000 1632.6563 2384.5976 3214.0006 0.0000 -175928.8188 19998.3209 98.4160 0.0000 30963.4643 -117637.3630 301.0486 -148600.8273 -117601.5032 299.3228 77.1314 -9.7476 495484.4691 2.2051 2.0512
ENERGY: 49000 1625.0180 2421.7014 3203.1291 0.0000 -175829.8827 19930.7966 99.0721 0.0000 30728.2599 -117821.9055 298.7618 -148550.1654 -117788.2469 299.7736 -22.8856 17.4537 497110.6188 1.4449 2.1378
ENERGY: 50000 1594.8019 2431.8941 3192.4114 0.0000 -175832.0207 20037.9040 105.0117 0.0000 30941.2291 -117528.7685 300.8324 -148469.9976 -117479.8866 299.4578 -15.0017 43.1587 496679.7654 -10.2269 -10.7907
TCL: Setting parameter constraintScaling to 0
TCL: Running for 5000 steps
ETITLE: TS BOND ANGLE DIHED IMPRP ELECT VDW BOUNDARY MISC KINETIC TOTAL TEMP POTENTIAL TOTAL3 TEMPAVG PRESSURE GPRESSURE VOLUME PRESSAVG GPRESSAVG
ENERGY: 50000 1594.8019 2431.8941 3192.4114 0.0000 -175832.0207 20037.9040 0.0000 0.0000 30939.1775 -117635.8317 300.8125 -148575.0093 -117591.4656 300.8125 -23.7292 33.7976 496679.7654 -23.7292 33.7976
ENERGY: 51000 1650.7060 2435.8122 3171.0924 0.0000 -175809.2240 19926.5640 0.0000 0.0000 30731.6270 -117893.4224 298.7945 -148625.0493 -117848.9255 299.7941 -87.0000 -61.0759 495845.6646 7.1982 7.2854
ENERGY: 52000 1656.5028 2387.7413 3219.4771 0.0000 -176297.5864 20264.2552 0.0000 0.0000 30876.1822 -117893.4278 300.2000 -148769.6100 -117847.2583 299.5219 -34.1593 -26.1049 496386.7482 10.4241 10.6325
ENERGY: 53000 1659.7227 2391.3052 3210.2803 0.0000 -176046.2088 20048.7236 0.0000 0.0000 30935.7736 -117800.4033 300.7794 -148736.1770 -117756.6776 299.3906 -27.7058 28.1829 496259.8445 4.9459 4.8489
ENERGY: 54000 1595.4158 2389.3440 3217.0509 0.0000 -175998.5506 20029.4975 0.0000 0.0000 30758.9012 -118008.3412 299.0597 -148767.2424 -117976.0394 299.1540 57.7474 12.3189 496352.7709 7.6175 8.2757
ENERGY: 55000 1643.5814 2356.1555 3194.4370 0.0000 -175832.4039 19941.3560 0.0000 0.0000 30818.9835 -117877.8904 299.6439 -148696.8739 -117840.5801 299.9611 -221.1386 -66.7277 496481.1367 5.0217 5.0471
