Info: SIMULATION PARAMETERS:
Info: TIMESTEP               1
Info: NUMBER OF STEPS        0
Info: STEPS PER CYCLE        10
Info: PERIODIC CELL BASIS 1  72.449 0 0
Info: PERIODIC CELL BASIS 2  0 93.247 0
Info: PERIODIC CELL BASIS 3  0 0 79.185
Info: PERIODIC CELL CENTER   -0.248 -0.156 -0.047
Info: WRAPPING WATERS AROUND PERIODIC BOUNDARIES ON OUTPUT.
Info: WRAPPING ALL CLUSTERS AROUND PERIODIC BOUNDARIES ON OUTPUT.
Info: FIRST LDB TIMESTEP     50
Info: LAST LDB TIMESTEP     -1
Info: HOM BACKGROUND SCALING 1
Info: PME BACKGROUND SCALING 1
Info: MIN ATOMS PER PATCH    40
Info: VELOCITY FILE          ../replicas/rep103/equilibration/eq1.vel
Info: CENTER OF MASS MOVING INITIALLY? NO
Info: DIELECTRIC             1
Info: EXCLUDE                SCALED ONE-FOUR
Info: 1-4 ELECTROSTATICS SCALED BY 0.833333
Info: MODIFIED 1-4 VDW PARAMETERS WILL BE USED
Info: DCD FILENAME           ../replicas/rep103/equilibration/eq2.dcd
Info: DCD FREQUENCY          5000
Info: DCD FIRST STEP         5000
Info: DCD FILE WILL CONTAIN UNIT CELL DATA
Info: XST FILENAME           ../replicas/rep103/equilibration/eq2.xst
Info: XST FREQUENCY          5000
Info: NO VELOCITY DCD OUTPUT
Info: NO FORCE DCD OUTPUT
Info: OUTPUT FILENAME        ../replicas/rep103/equilibration/eq2
Info: RESTART FILENAME       ../replicas/rep103/equilibration/eq2.restart
Info: RESTART FREQUENCY      5000
Info: BINARY RESTART FILES WILL BE USED
Info: SWITCHING ACTIVE
Info: SWITCHING ON           10
Info: SWITCHING OFF          12
Info: PAIRLIST DISTANCE      13.5
Info: PAIRLIST SHRINK RATE   0.01
Info: PAIRLIST GROW RATE     0.01
Info: PAIRLIST TRIGGER       0.3
Info: PAIRLISTS PER CYCLE    2
Info: PAIRLISTS ENABLED
Info: MARGIN                 0.48
Info: HYDROGEN GROUP CUTOFF  2.5
Info: PATCH DIMENSION        16.48
Info: ENERGY OUTPUT STEPS    500
Info: CROSSTERM ENERGY INCLUDED IN DIHEDRAL
Info: TIMING OUTPUT STEPS    5000
Info: PRESSURE OUTPUT STEPS  500
Info: HARMONIC CONSTRAINTS ACTIVE
Info: HARMONIC CONS EXP      2
Info: HARMONIC CONS SCALING  10
Info: LANGEVIN DYNAMICS ACTIVE
Info: LANGEVIN TEMPERATURE   300
Info: LANGEVIN USING BBK INTEGRATOR
Info: LANGEVIN DAMPING COEFFICIENT IS 5 INVERSE PS
Info: LANGEVIN DYNAMICS NOT APPLIED TO HYDROGENS
Info: BERENDSEN PRESSURE COUPLING ACTIVE
Info:     TARGET PRESSURE IS 1 BAR
Info:     COMPRESSIBILITY ESTIMATE IS 4.57e-05 BAR^(-1)
Info:     RELAXATION TIME IS 100 FS
Info:     APPLIED EVERY 2 STEPS
Info:     PRESSURE CONTROL IS GROUP-BASED
Info:       CELL FLUCTUATION IS ISOTROPIC
Info: PARTICLE MESH EWALD (PME) ACTIVE
Info: PME TOLERANCE               1e-06
Info: PME EWALD COEFFICIENT       0.257952
Info: PME INTERPOLATION ORDER     4
Info: PME GRID DIMENSIONS         80 96 80
Info: PME MAXIMUM GRID SPACING    1
Info: FULL ELECTROSTATIC EVALUATION FREQUENCY      2
Info: USING VERLET I (r-RESPA) MTS SCHEME.
Info: C1 SPLITTING OF LONG RANGE ELECTROSTATICS
Info: PLACING ATOMS IN PATCHES BY HYDROGEN GROUPS
Info: RIGID BONDS TO HYDROGEN : WATER
Info:         ERROR TOLERANCE : 1e-05
Info:          MAX ITERATIONS : 100
Info: RIGID WATER USING SETTLE ALGORITHM
Info: RANDOM NUMBER SEED     1503701366
Info: USE HYDROGEN BONDS?    NO
Info: Using AMBER format force field!
Info: AMBER PARM FILE        ../build/complex.top
Info: COORDINATE PDB         ../replicas/rep103/equilibration/eq1.coor
Info: Exclusions in PARM file will be ignored!
Info: SCNB (VDW SCALING)     2
Info: USING ARITHMETIC MEAN TO COMBINE L-J SIGMA PARAMETERS
Info: SUMMARY OF PARAMETERS:
Info: 71 BONDS
Info: 145 ANGLES
Info: 76 DIHEDRAL
Info: 0 IMPROPER
Info: 0 CROSSTERM
Info: 0 VDW
Info: 190 VDW_PAIRS
Info: 0 NBTHOLE_PAIRS
Info: STRUCTURE SUMMARY:
Info: 49394 ATOMS
Info: 49448 BONDS
Info: 8698 ANGLES
Info: 18780 DIHEDRALS
Info: 0 IMPROPERS
Info: 0 CROSSTERMS
Info: 0 EXCLUSIONS
Info: 2336 CONSTRAINTS
Info: 44667 RIGID BONDS
Info: 103515 DEGREES OF FREEDOM
Info: 17225 HYDROGEN GROUPS
Info: 4 ATOMS IN LARGEST HYDROGEN GROUP
Info: 17225 MIGRATION GROUPS
Info: 4 ATOMS IN LARGEST MIGRATION GROUP
Info: TOTAL MASS = 301478 amu
Info: TOTAL CHARGE = 1.00115e-05 e
Info: MASS DENSITY = 0.935846 g/cm^3
Info: ATOM DENSITY = 0.0923345 atoms/A^3
Info: ADDED 70656 IMPLICIT EXCLUSIONS
Info: NONBONDED TABLE R-SQUARED SPACING: 0.0625
Info: NONBONDED TABLE SIZE: 769 POINTS
Info: REMOVING COM VELOCITY 0.0236657 0.00882682 0.00726627
TCL: Running for 5000 steps
ETITLE: TS BOND ANGLE DIHED IMPRP ELECT VDW BOUNDARY MISC KINETIC TOTAL TEMP POTENTIAL TOTAL3 TEMPAVG PRESSURE GPRESSURE VOLUME PRESSAVG GPRESSAVG
ENERGY: 0 404.9199 1213.4234 2927.0495 0.0000 -212856.8215 29560.4887 0.0000 0.0000 10093.8910 -168657.0489 98.1399 -178750.9399 -168647.2846 98.1399 -2344.0150 -2441.9967 534946.2959 -2344.0150 -2441.9967
ENERGY: 1000 1249.5358 2004.0781 3107.6050 0.0000 -193282.1718 26225.0400 777.4794 0.0000 24242.2405 -135676.1930 235.7001 -159918.4335 -135651.2693 218.7914 52.3703 -22.7657 522266.9737 -15.1355 -15.6641
ENERGY: 2000 1445.9158 2115.2283 3129.3045 0.0000 -184239.8312 23487.8509 784.6143 0.0000 27885.3907 -125391.5267 271.1214 -153276.9173 -125360.9281 264.2869 -46.8097 -35.8797 516002.2200 -29.4339 -29.3024
ENERGY: 3000 1573.1696 2204.4805 3151.3124 0.0000 -179355.2439 21768.7870 829.2681 0.0000 29790.1539 -120038.0723 289.6409 -149828.2262 -119994.9517 285.0818 -7.2357 27.4612 511740.7636 -11.6167 -11.6565
ENERGY: 4000 1563.1462 2245.9360 3136.2490 0.0000 -176952.1166 21116.2748 841.2848 0.0000 30464.2944 -117584.9313 296.1953 -148049.2258 -117533.9385 293.9698 -121.0391 -32.6626 508655.7096 -0.1060 -0.2091
ENERGY: 5000 1560.4416 2251.9713 3143.2380 0.0000 -176112.2180 20552.5595 796.3026 0.0000 30641.6725 -117166.0325 297.9199 -147807.7050 -117126.7065 297.2493 -51.4602 24.2987 505915.1936 -18.9642 -18.8754
TCL: Setting parameter constraintScaling to 5.0
TCL: Running for 5000 steps
ETITLE: TS BOND ANGLE DIHED IMPRP ELECT VDW BOUNDARY MISC KINETIC TOTAL TEMP POTENTIAL TOTAL3 TEMPAVG PRESSURE GPRESSURE VOLUME PRESSAVG GPRESSAVG
ENERGY: 5000 1560.4416 2251.9713 3143.2380 0.0000 -176112.2180 20552.5595 398.1513 0.0000 30639.6572 -117566.1992 297.9003 -148205.8563 -117521.4281 297.9003 -98.6905 -24.4076 505915.1936 -98.6905 -24.4076
ENERGY: 6000 1634.3482 2276.7021 3175.2190 0.0000 -175568.0839 20337.1354 631.1966 0.0000 30681.8270 -116831.6555 298.3103 -147513.4826 -116791.4980 298.6654 -23.4769 38.3134 504339.5779 11.9004 11.8185
ENERGY: 7000 1583.1275 2255.5065 3163.6256 0.0000 -175923.8778 20407.8731 639.6885 0.0000 31059.4260 -116814.6306 301.9816 -147874.0566 -116761.2792 299.3544 -23.4306 -14.1305 504226.9681 2.5894 2.7438
ENERGY: 8000 1581.7099 2255.8318 3156.1295 0.0000 -175717.7571 20176.1748 649.2945 0.0000 30917.2134 -116981.4031 300.5989 -147898.6165 -116938.9616 298.8962 20.4548 0.7714 503333.9075 -3.0414 -2.3336
ENERGY: 9000 1560.1235 2313.1320 3156.6539 0.0000 -175570.3395 20078.0015 646.1323 0.0000 30711.5051 -117104.7912 298.5989 -147816.2963 -117062.3498 298.4717 29.5950 22.9695 501465.8559 -0.8358 -0.8004
ENERGY: 10000 1615.7828 2308.4634 3169.9567 0.0000 -175357.9833 20143.9088 646.4584 0.0000 30931.3721 -116542.0411 300.7366 -147473.4132 -116489.6304 300.8103 -38.6968 -11.5733 501878.7671 -14.4648 -14.2239
TCL: Setting parameter constraintScaling to 2.5
TCL: Running for 5000 steps
ETITLE: TS BOND ANGLE DIHED IMPRP ELECT VDW BOUNDARY MISC KINETIC TOTAL TEMP POTENTIAL TOTAL3 TEMPAVG PRESSURE GPRESSURE VOLUME PRESSAVG GPRESSAVG
ENERGY: 10000 1615.7828 2308.4634 3169.9567 0.0000 -175357.9832 20143.9088 323.2292 0.0000 30929.3427 -116867.2997 300.7169 -147796.6424 -116822.6774 300.7169 -46.7181 -7.0320 501878.7671 -46.7181 -7.0320
ENERGY: 11000 1617.4194 2354.8847 3182.4847 0.0000 -175454.1311 20247.0015 511.2967 0.0000 30812.6592 -116728.3850 299.5824 -147541.0441 -116687.7758 300.8401 30.4614 29.9653 501087.8924 5.7599 5.4480
ENERGY: 12000 1648.7046 2373.6715 3179.0543 0.0000 -175408.1762 20253.9188 511.0221 0.0000 30966.2466 -116475.5583 301.0757 -147441.8049 -116430.5037 300.8432 -65.9910 -10.0431 502370.7804 6.2318 5.5724
ENERGY: 13000 1598.2963 2297.6173 3185.8582 0.0000 -175192.4295 19971.3005 491.8782 0.0000 30977.2334 -116670.2456 301.1825 -147647.4790 -116624.8569 300.9502 -20.6640 -28.5049 502449.3051 12.7966 13.1293
ENERGY: 14000 1622.0373 2339.5726 3153.1180 0.0000 -175332.0336 19937.9032 495.3557 0.0000 30918.6337 -116865.4131 300.6127 -147784.0468 -116820.6084 300.8090 106.7794 59.1547 500148.0630 -14.2419 -14.1986
ENERGY: 15000 1615.6121 2406.7970 3180.6203 0.0000 -175553.6424 20071.4160 505.2914 0.0000 31113.8539 -116660.0518 302.5108 -147773.9056 -116619.7262 301.1731 -100.1738 -36.4902 500509.6450 -4.6496 -4.8833
TCL: Setting parameter constraintScaling to 1.25
TCL: Running for 5000 steps
ETITLE: TS BOND ANGLE DIHED IMPRP ELECT VDW BOUNDARY MISC KINETIC TOTAL TEMP POTENTIAL TOTAL3 TEMPAVG PRESSURE GPRESSURE VOLUME PRESSAVG GPRESSAVG
ENERGY: 15000 1615.6121 2406.7970 3180.6203 0.0000 -175553.6424 20071.4160 252.6457 0.0000 31111.8157 -116914.7356 302.4910 -148026.5513 -116873.3544 302.4910 -112.6854 -47.4629 500509.6450 -112.6854 -47.4629
ENERGY: 16000 1628.2689 2411.5689 3203.7096 0.0000 -175952.8238 20440.2764 390.7136 0.0000 30856.3248 -117021.9616 300.0069 -147878.2864 -116978.7517 301.9934 42.5330 -7.2070 499651.4519 -9.3434 -9.2972
ENERGY: 17000 1656.7104 2342.5778 3179.7427 0.0000 -175580.5235 19973.2673 402.1627 0.0000 30792.2366 -117233.8259 299.3838 -148026.0625 -117199.6312 299.9054 -108.3092 -80.4198 500959.9672 6.9798 7.0385
ENERGY: 18000 1635.7914 2313.7814 3173.5282 0.0000 -175509.8320 20189.1234 383.8465 0.0000 30917.1107 -116896.6503 300.5979 -147813.7611 -116864.4123 300.2882 19.5948 80.9074 499774.7548 -3.2942 -4.0157
ENERGY: 19000 1582.1054 2392.5121 3205.6751 0.0000 -175667.7105 20113.4183 423.7503 0.0000 30779.3263 -117170.9231 299.2583 -147950.2494 -117121.0087 298.7284 51.2055 10.8762 499756.5527 6.6558 6.7757
ENERGY: 20000 1603.5897 2377.3715 3179.3268 0.0000 -175890.4478 20273.4850 394.3858 0.0000 30855.4257 -117206.8631 299.9982 -148062.2888 -117161.6722 300.2838 8.1307 43.8402 498566.7448 -15.1533 -15.1797
TCL: Setting parameter constraintScaling to 0.625
TCL: Running for 5000 steps
ETITLE: TS BOND ANGLE DIHED IMPRP ELECT VDW BOUNDARY MISC KINETIC TOTAL TEMP POTENTIAL TOTAL3 TEMPAVG PRESSURE GPRESSURE VOLUME PRESSAVG GPRESSAVG
ENERGY: 20000 1603.5897 2377.3715 3179.3268 0.0000 -175890.4478 20273.4850 197.1929 0.0000 30853.3848 -117406.0970 299.9784 -148259.4818 -117361.0469 299.9784 25.1990 67.8437 498566.7448 25.1990 67.8437
ENERGY: 21000 1611.4240 2444.8862 3185.7996 0.0000 -174935.9302 19811.2020 318.7197 0.0000 30862.7906 -116701.1082 300.0698 -147563.8988 -116655.4991 300.2078 -11.5583 8.8761 499364.9029 9.9488 10.4709
ENERGY: 22000 1666.0293 2455.0721 3206.6533 0.0000 -175602.0869 20150.9306 314.7233 0.0000 30930.1366 -116878.5416 300.7246 -147808.6782 -116845.8472 301.2983 -73.8760 -29.3688 499249.5481 -3.7695 -4.3960
ENERGY: 23000 1584.6555 2462.6485 3198.8868 0.0000 -175912.9262 19975.0851 311.2437 0.0000 30685.4238 -117694.9827 298.3453 -148380.4065 -117646.7011 299.2862 -77.7426 -44.8514 499900.8805 -7.2432 -7.6710
ENERGY: 24000 1678.2489 2387.8968 3202.7284 0.0000 -175794.8763 20159.3278 309.9636 0.0000 30851.1295 -117205.5812 299.9564 -148056.7107 -117160.2952 299.5146 -35.2196 -34.4045 499846.3476 3.2472 2.6684
ENERGY: 25000 1648.9571 2443.8415 3198.1283 0.0000 -175948.9565 20189.3433 311.2344 0.0000 30778.3337 -117379.1181 299.2487 -148157.4518 -117322.2957 299.2397 -36.2677 17.6185 498299.1606 -9.5161 -9.3967
TCL: Setting parameter constraintScaling to 0.3125
TCL: Running for 5000 steps
ETITLE: TS BOND ANGLE DIHED IMPRP ELECT VDW BOUNDARY MISC KINETIC TOTAL TEMP POTENTIAL TOTAL3 TEMPAVG PRESSURE GPRESSURE VOLUME PRESSAVG GPRESSAVG
ENERGY: 25000 1648.9571 2443.8415 3198.1283 0.0000 -175948.9565 20189.3433 155.6172 0.0000 30776.3126 -117536.7564 299.2290 -148313.0690 -117491.6100 299.2290 -15.3773 38.7410 498299.1606 -15.3773 38.7410
ENERGY: 26000 1693.1482 2440.7203 3215.6270 0.0000 -175243.2754 19945.3034 233.3296 0.0000 30559.2619 -117155.8851 297.1187 -147715.1470 -117108.1786 300.0579 -114.7425 -58.8518 498608.9397 4.5710 4.9754
ENERGY: 27000 1638.0812 2402.3265 3232.6381 0.0000 -175758.0788 20015.4097 243.5723 0.0000 30968.2078 -117257.8432 301.0947 -148226.0510 -117207.9167 300.4248 -163.0109 -59.4401 497504.5466 -1.8735 -1.9196
ENERGY: 28000 1682.1938 2466.1343 3196.2742 0.0000 -176044.7975 20091.6089 241.3863 0.0000 30967.8480 -117399.3520 301.0912 -148367.2000 -117354.4700 300.6787 55.3229 38.3813 496379.7316 -6.8621 -6.2482
ENERGY: 29000 1602.8430 2410.3505 3201.1719 0.0000 -175314.4266 19974.9740 243.4666 0.0000 30892.7187 -116988.9019 300.3608 -147881.6205 -116952.3458 300.0677 1.1353 -32.0136 498784.6292 3.8722 3.8867
ENERGY: 30000 1607.0962 2418.6095 3205.8997 0.0000 -175798.4020 19994.4648 257.4527 0.0000 30821.1906 -117493.6885 299.6653 -148314.8791 -117452.5735 299.8391 43.6835 59.1043 497726.2987 -3.3307 -3.8226
TCL: Setting parameter constraintScaling to 0.15625
TCL: Running for 5000 steps
ETITLE: TS BOND ANGLE DIHED IMPRP ELECT VDW BOUNDARY MISC KINETIC TOTAL TEMP POTENTIAL TOTAL3 TEMPAVG PRESSURE GPRESSURE VOLUME PRESSAVG GPRESSAVG
ENERGY: 30000 1607.0962 2418.6095 3205.8997 0.0000 -175798.4020 19994.4648 128.7264 0.0000 30819.1261 -117624.4794 299.6453 -148443.6055 -117582.4056 299.6453 15.1741 30.6672 497726.2987 15.1741 30.6672
ENERGY: 31000 1624.5074 2403.4084 3228.8369 0.0000 -175900.9654 20099.9463 182.3632 0.0000 30786.5384 -117575.3648 299.3284 -148361.9031 -117524.3031 299.3984 -14.1055 -62.4717 498098.7746 6.7174 6.5577
ENERGY: 32000 1644.8267 2402.7953 3222.8423 0.0000 -176119.9528 20264.0614 193.1934 0.0000 30819.7427 -117572.4911 299.6513 -148392.2338 -117520.5619 299.9059 78.0373 57.2919 497308.9265 -3.4742 -4.2489
ENERGY: 33000 1638.2952 2381.1159 3191.5085 0.0000 -176051.7001 20170.5057 196.3958 0.0000 31002.3692 -117471.5098 301.4269 -148473.8790 -117426.1651 299.6846 -202.7221 -86.2026 497893.1029 -2.0128 -2.2229
ENERGY: 34000 1624.1751 2431.2547 3227.7467 0.0000 -176071.7211 20094.0061 194.4389 0.0000 30970.3625 -117529.7370 301.1157 -148500.0995 -117475.5577 299.2475 -183.1537 -73.8662 497210.9460 5.7822 5.6347
ENERGY: 35000 1652.9675 2357.4758 3204.8377 0.0000 -175763.3378 20021.1066 199.0966 0.0000 30842.0223 -117485.8313 299.8679 -148327.8536 -117434.0478 300.1966 22.1818 -9.7962 498474.6827 9.1181 9.4303
TCL: Setting parameter constraintScaling to 0.078125
TCL: Running for 5000 steps
ETITLE: TS BOND ANGLE DIHED IMPRP ELECT VDW BOUNDARY MISC KINETIC TOTAL TEMP POTENTIAL TOTAL3 TEMPAVG PRESSURE GPRESSURE VOLUME PRESSAVG GPRESSAVG
ENERGY: 35000 1652.9675 2357.4758 3204.8377 0.0000 -175763.3378 20021.1066 99.5483 0.0000 30839.9738 -117587.4281 299.8480 -148427.4019 -117538.7628 299.8480 0.6391 -32.9448 498474.6827 0.6391 -32.9448
ENERGY: 36000 1611.9510 2348.5596 3206.6582 0.0000 -175885.4228 20120.7069 142.0372 0.0000 30697.5461 -117757.9637 298.4632 -148455.5098 -117710.2338 299.0928 -75.0235 14.4000 498875.7519 10.3230 10.5805
ENERGY: 37000 1656.0669 2408.9567 3211.3849 0.0000 -175994.9832 20110.9165 160.5846 0.0000 30811.5492 -117635.5244 299.5716 -148447.0736 -117579.6857 299.9578 -88.1346 -32.3274 496496.9541 1.1540 1.9364
ENERGY: 38000 1624.6484 2446.3828 3214.6561 0.0000 -175671.8952 19758.2461 145.6037 0.0000 30676.5263 -117805.8319 298.2588 -148482.3582 -117765.3749 298.9339 -63.5225 -67.0115 496543.8618 -2.3122 -2.0162
ENERGY: 39000 1623.8889 2456.1405 3236.2879 0.0000 -176026.1677 19999.7625 166.6625 0.0000 30970.7243 -117572.7010 301.1192 -148543.4253 -117522.3272 298.2333 -19.8463 -41.9024 495999.9293 5.1606 4.6353
ENERGY: 40000 1600.6822 2402.7220 3189.6415 0.0000 -175604.2609 19930.0706 164.9740 0.0000 30875.0301 -117441.1406 300.1888 -148316.1707 -117404.3120 300.8274 -49.3884 -10.4213 497357.3798 7.5046 7.2900
TCL: Setting parameter constraintScaling to 0.0390625
TCL: Running for 5000 steps
ETITLE: TS BOND ANGLE DIHED IMPRP ELECT VDW BOUNDARY MISC KINETIC TOTAL TEMP POTENTIAL TOTAL3 TEMPAVG PRESSURE GPRESSURE VOLUME PRESSAVG GPRESSAVG
ENERGY: 40000 1600.6822 2402.7220 3189.6415 0.0000 -175604.2609 19930.0706 82.4870 0.0000 30872.9856 -117525.6720 300.1689 -148398.6576 -117483.8153 300.1689 -64.1414 -21.5872 497357.3798 -64.1414 -21.5872
ENERGY: 41000 1568.0016 2436.3722 3193.2015 0.0000 -175667.5644 20152.8672 110.2810 0.0000 30880.5963 -117326.2446 300.2429 -148206.8409 -117266.9650 300.6478 7.5459 9.9253 497764.2955 10.6346 10.8688
ENERGY: 42000 1632.3819 2340.7251 3214.3909 0.0000 -175537.0103 19851.1448 119.2289 0.0000 30964.5731 -117414.5657 301.0594 -148379.1388 -117365.4684 299.1015 -230.6021 -98.8123 498179.4302 8.8037 8.8676
ENERGY: 43000 1608.2434 2400.8624 3201.3231 0.0000 -175950.3490 20025.4442 122.3503 0.0000 30639.5941 -117952.5315 297.8997 -148592.1256 -117911.6774 298.6496 10.5218 2.3724 496240.5061 -12.9801 -13.6162
ENERGY: 44000 1634.2824 2385.2495 3234.5742 0.0000 -175978.9435 20172.4706 131.6053 0.0000 30814.2944 -117606.4670 299.5983 -148420.7614 -117552.6542 300.0421 -149.7776 36.3735 496580.1701 5.3235 5.4437
ENERGY: 45000 1623.0922 2423.4431 3211.4847 0.0000 -175950.5623 20054.4993 129.9476 0.0000 30777.9619 -117730.1335 299.2450 -148508.0955 -117672.1540 299.0159 99.1490 -14.0401 496437.8776 -2.0566 -2.0975
TCL: Setting parameter constraintScaling to 0.01953125
TCL: Running for 5000 steps
ETITLE: TS BOND ANGLE DIHED IMPRP ELECT VDW BOUNDARY MISC KINETIC TOTAL TEMP POTENTIAL TOTAL3 TEMPAVG PRESSURE GPRESSURE VOLUME PRESSAVG GPRESSAVG
ENERGY: 45000 1623.0922 2423.4431 3211.4847 0.0000 -175950.5624 20054.4993 64.9738 0.0000 30775.8721 -117797.1972 299.2247 -148573.0693 -117753.3888 299.2247 104.7239 -7.0059 496437.8776 104.7239 -7.0059
ENERGY: 46000 1608.2149 2401.4139 3216.0504 0.0000 -176009.4743 20078.1768 85.4237 0.0000 30795.0761 -117825.1185 299.4114 -148620.1946 -117787.4749 299.1231 -87.7852 -11.2468 496968.2600 4.3033 4.2958
ENERGY: 47000 1639.8466 2381.1885 3189.6982 0.0000 -175466.6335 19831.7453 84.1919 0.0000 30948.0254 -117391.9375 300.8985 -148339.9630 -117338.8881 298.9195 -61.5002 -9.4582 498167.6394 9.3553 9.1750
ENERGY: 48000 1614.1069 2431.0177 3265.0001 0.0000 -175779.9422 20103.5064 90.8671 0.0000 30614.2030 -117661.2411 297.6529 -148275.4441 -117617.5288 299.8306 94.5975 41.2771 498224.7133 13.6308 13.9568
ENERGY: 49000 1622.5881 2366.2506 3220.0535 0.0000 -175629.4830 19886.4936 85.8415 0.0000 30971.3196 -117476.9360 301.1250 -148448.2556 -117426.3016 300.3380 35.0265 -34.5677 496997.4305 -0.3510 -0.5345
ENERGY: 50000 1668.0674 2414.7039 3179.7691 0.0000 -175913.9349 19901.4293 86.7182 0.0000 30973.8073 -117689.4396 301.1492 -148663.2470 -117648.9204 298.5195 8.4506 9.0602 496035.5441 -9.6265 -9.7769
TCL: Setting parameter constraintScaling to 0
TCL: Running for 5000 steps
ETITLE: TS BOND ANGLE DIHED IMPRP ELECT VDW BOUNDARY MISC KINETIC TOTAL TEMP POTENTIAL TOTAL3 TEMPAVG PRESSURE GPRESSURE VOLUME PRESSAVG GPRESSAVG
ENERGY: 50000 1668.0674 2414.7039 3179.7691 0.0000 -175913.9349 19901.4293 0.0000 0.0000 30971.7287 -117778.2364 301.1290 -148749.9651 -117737.6842 301.1290 -10.2552 -4.2365 496035.5441 -10.2552 -4.2365
ENERGY: 51000 1609.6983 2383.6436 3187.7359 0.0000 -176240.1941 20250.6597 0.0000 0.0000 30684.9399 -118123.5167 298.3406 -148808.4566 -118063.4813 298.6526 -31.9293 -54.3088 496815.1795 -0.1485 0.0476
ENERGY: 52000 1652.2963 2383.5527 3247.8472 0.0000 -176101.0684 20064.5030 0.0000 0.0000 30688.3263 -118064.5429 298.3735 -148752.8692 -118005.1418 298.2509 -64.0450 -61.9060 496773.5624 -0.7196 -0.6445
ENERGY: 53000 1693.1534 2408.9493 3203.2891 0.0000 -176403.6426 20133.4515 0.0000 0.0000 30858.2376 -118106.5618 300.0255 -148964.7995 -118068.7016 299.4218 -86.6202 -51.8314 497414.1757 -1.0999 -1.0604
ENERGY: 54000 1617.8918 2442.8769 3199.0266 0.0000 -175540.1566 19719.1256 0.0000 0.0000 30842.0176 -117719.2181 299.8678 -148561.2358 -117673.3638 299.1172 18.9004 58.3432 496708.0729 -1.4012 -1.4040
ENERGY: 55000 1578.8886 2472.2877 3255.3368 0.0000 -176127.7030 20170.9841 0.0000 0.0000 30778.4410 -117871.7647 299.2497 -148650.2057 -117837.7831 299.0329 28.9266 88.1172 496428.7068 -9.4878 -9.2696
