Info: SIMULATION PARAMETERS:
Info: TIMESTEP               2
Info: NUMBER OF STEPS        0
Info: STEPS PER CYCLE        10
Info: PERIODIC CELL BASIS 1  72.449 0 0
Info: PERIODIC CELL BASIS 2  0 93.247 0
Info: PERIODIC CELL BASIS 3  0 0 79.185
Info: PERIODIC CELL CENTER   -0.248 -0.156 -0.047
Info: WRAPPING WATERS AROUND PERIODIC BOUNDARIES ON OUTPUT.
Info: WRAPPING ALL CLUSTERS AROUND PERIODIC BOUNDARIES ON OUTPUT.
Info: FIRST LDB TIMESTEP     50
Info: LAST LDB TIMESTEP     -1
Info: HOM BACKGROUND SCALING 1
Info: PME BACKGROUND SCALING 1
Info: MIN ATOMS PER PATCH    40
Info: INITIAL TEMPERATURE    0
Info: CENTER OF MASS MOVING INITIALLY? NO
Info: DIELECTRIC             1
Info: EXCLUDE                SCALED ONE-FOUR
Info: 1-4 ELECTROSTATICS SCALED BY 0.833333
Info: MODIFIED 1-4 VDW PARAMETERS WILL BE USED
Info: NO DCD TRAJECTORY OUTPUT
Info: NO EXTENDED SYSTEM TRAJECTORY OUTPUT
Info: NO VELOCITY DCD OUTPUT
Info: NO FORCE DCD OUTPUT
Info: OUTPUT FILENAME        ../replicas/rep5/equilibration/eq0
Info: NO RESTART FILE
Info: SWITCHING ACTIVE
Info: SWITCHING ON           10
Info: SWITCHING OFF          12
Info: PAIRLIST DISTANCE      13.5
Info: PAIRLIST SHRINK RATE   0.01
Info: PAIRLIST GROW RATE     0.01
Info: PAIRLIST TRIGGER       0.3
Info: PAIRLISTS PER CYCLE    2
Info: PAIRLISTS ENABLED
Info: MARGIN                 0
Info: HYDROGEN GROUP CUTOFF  2.5
Info: PATCH DIMENSION        16
Info: ENERGY OUTPUT STEPS    500
Info: CROSSTERM ENERGY INCLUDED IN DIHEDRAL
Info: TIMING OUTPUT STEPS    5000
Info: PRESSURE OUTPUT STEPS  500
Info: HARMONIC CONSTRAINTS ACTIVE
Info: HARMONIC CONS EXP      2
Info: HARMONIC CONS SCALING  10
Info: CONJUGATE GRADIENT MINIMIZATION ACTIVE
Info: LINE MINIMIZATION GOAL = 0.001
Info: BABY STEP SIZE = 0.01
Info: TINY STEP SIZE = 1e-06
Info: PARTICLE MESH EWALD (PME) ACTIVE
Info: PME TOLERANCE               1e-06
Info: PME EWALD COEFFICIENT       0.257952
Info: PME INTERPOLATION ORDER     4
Info: PME GRID DIMENSIONS         80 96 80
Info: PME MAXIMUM GRID SPACING    1
Info: FULL ELECTROSTATIC EVALUATION FREQUENCY      2
Info: USING VERLET I (r-RESPA) MTS SCHEME.
Info: C1 SPLITTING OF LONG RANGE ELECTROSTATICS
Info: PLACING ATOMS IN PATCHES BY HYDROGEN GROUPS
Info: RIGID BONDS TO HYDROGEN : ALL
Info:         ERROR TOLERANCE : 1e-05
Info:          MAX ITERATIONS : 100
Info: RIGID WATER USING SETTLE ALGORITHM
Info: RANDOM NUMBER SEED     1503696032
Info: USE HYDROGEN BONDS?    NO
Info: Using AMBER format force field!
Info: AMBER PARM FILE        ../build/complex.top
Info: COORDINATE PDB         ../build/complex.pdb
Info: Exclusions in PARM file will be ignored!
Info: SCNB (VDW SCALING)     2
Info: USING ARITHMETIC MEAN TO COMBINE L-J SIGMA PARAMETERS
Info: SUMMARY OF PARAMETERS:
Info: 71 BONDS
Info: 145 ANGLES
Info:   145 HARMONIC
Info:   0 COSINE-BASED
Info: 76 DIHEDRAL
Info: 0 IMPROPER
Info: 0 CROSSTERM
Info: 0 VDW
Info: 190 VDW_PAIRS
Info: 0 NBTHOLE_PAIRS
Info: STRUCTURE SUMMARY:
Info: 49394 ATOMS
Info: 49448 BONDS
Info: 8698 ANGLES
Info: 18780 DIHEDRALS
Info: 0 IMPROPERS
Info: 0 CROSSTERMS
Info: 0 EXCLUSIONS
Info: 2336 CONSTRAINTS
Info: 47058 RIGID BONDS
Info: 101124 DEGREES OF FREEDOM
Info: 17225 HYDROGEN GROUPS
Info: 4 ATOMS IN LARGEST HYDROGEN GROUP
Info: 17225 MIGRATION GROUPS
Info: 4 ATOMS IN LARGEST MIGRATION GROUP
Info: TOTAL MASS = 301478 amu
Info: TOTAL CHARGE = 1.00115e-05 e
Info: MASS DENSITY = 0.935846 g/cm^3
Info: ATOM DENSITY = 0.0923345 atoms/A^3
Info: ADDED 70656 IMPLICIT EXCLUSIONS
Info: NONBONDED TABLE R-SQUARED SPACING: 0.0625
Info: NONBONDED TABLE SIZE: 769 POINTS
Info: REMOVING COM VELOCITY 0 0 0
TCL: Minimizing for 100 steps
ETITLE: TS BOND ANGLE DIHED IMPRP ELECT VDW BOUNDARY MISC KINETIC TOTAL TEMP POTENTIAL TOTAL3 TEMPAVG PRESSURE GPRESSURE VOLUME PRESSAVG GPRESSAVG
ENERGY: 0 155.4176 1012.2698 2855.7272 0.0000 -154496.7911 207729.2052 0.0468 0.0000 0.0000 57255.8755 0.0000 57255.8755 57255.8755 0.0000 116350.2532 86546.1670 534946.2959 116350.2532 86546.1670
ENERGY: 20 304.7566 935.7913 2893.4663 0.0000 -158672.9418 17936.6588 143.9455 0.0000 0.0000 -136458.3232 0.0000 -136458.3232 -136458.3232 0.0000 16523.9380 -239.4566 534946.2959 16523.9380 -239.4566
ENERGY: 40 198.7461 799.5730 2896.9273 0.0000 -162811.4520 16417.9540 221.3030 0.0000 0.0000 -142276.9485 0.0000 -142276.9485 -142276.9485 0.0000 15011.2706 -2135.4694 534946.2959 15011.2706 -2135.4694
ENERGY: 60 130.5282 715.3440 2898.2166 0.0000 -167496.1568 15446.7539 315.2796 0.0000 0.0000 -147990.0345 0.0000 -147990.0345 -147990.0345 0.0000 13793.8837 -3799.3986 534946.2959 13793.8837 -3799.3986
ENERGY: 80 431.2712 765.6303 2904.3788 0.0000 -169937.5335 15121.1519 372.0124 0.0000 0.0000 -150343.0890 0.0000 -150343.0890 -150343.0890 0.0000 13270.3298 -4577.2456 534946.2959 13270.3298 -4577.2456
ENERGY: 100 119.3846 710.0600 2905.2592 0.0000 -171259.7101 14991.7872 387.3613 0.0000 0.0000 -152145.8579 0.0000 -152145.8579 -152145.8579 0.0000 13056.2657 -4908.1715 534946.2959 13056.2657 -4908.1715
TCL: Setting parameter constraintScaling to 5.0
TCL: Minimizing for 100 steps
ETITLE: TS BOND ANGLE DIHED IMPRP ELECT VDW BOUNDARY MISC KINETIC TOTAL TEMP POTENTIAL TOTAL3 TEMPAVG PRESSURE GPRESSURE VOLUME PRESSAVG GPRESSAVG
ENERGY: 100 119.3846 710.0600 2905.2592 0.0000 -171259.7101 14991.7872 193.6807 0.0000 0.0000 -152339.5385 0.0000 -152339.5385 -152339.5385 0.0000 13672.7718 -23021.8176 534946.2959 13672.7718 -23021.8176
ENERGY: 120 108.8818 687.5837 2912.9266 0.0000 -172865.8854 14798.2706 281.1917 0.0000 0.0000 -154077.0311 0.0000 -154077.0311 -154077.0311 0.0000 13218.2545 -4906.0173 534946.2959 13218.2545 -4906.0173
ENERGY: 140 309.4079 708.8641 2913.8024 0.0000 -174236.7059 14731.4795 326.6404 0.0000 0.0000 -155246.5116 0.0000 -155246.5116 -155246.5116 0.0000 12971.5238 -5303.2507 534946.2959 12971.5238 -5303.2507
ENERGY: 160 265.3286 683.1429 2923.1794 0.0000 -176275.8204 14757.3649 382.9074 0.0000 0.0000 -157263.8972 0.0000 -157263.8972 -157263.8972 0.0000 12740.8973 -5742.9020 534946.2959 12740.8973 -5742.9020
ENERGY: 180 268.8314 744.0961 2928.5660 0.0000 -178995.7173 15023.5657 473.3184 0.0000 0.0000 -159557.3397 0.0000 -159557.3397 -159557.3397 0.0000 12521.5867 -6223.6016 534946.2959 12521.5867 -6223.6016
ENERGY: 200 238.9641 694.0846 2941.3668 0.0000 -181556.5639 15587.1210 546.2715 0.0000 0.0000 -161548.7559 0.0000 -161548.7559 -161548.7559 0.0000 12582.6504 -6419.7116 534946.2959 12582.6504 -6419.7116
TCL: Setting parameter constraintScaling to 2.5
TCL: Minimizing for 100 steps
ETITLE: TS BOND ANGLE DIHED IMPRP ELECT VDW BOUNDARY MISC KINETIC TOTAL TEMP POTENTIAL TOTAL3 TEMPAVG PRESSURE GPRESSURE VOLUME PRESSAVG GPRESSAVG
ENERGY: 200 238.9641 694.0846 2941.3668 0.0000 -181556.5639 15587.1210 273.1358 0.0000 0.0000 -161821.8917 0.0000 -161821.8917 -161821.8917 0.0000 13229.5650 -25650.5412 534946.2959 13229.5650 -25650.5412
ENERGY: 220 251.1238 679.9036 2933.0262 0.0000 -182083.0025 15471.0086 338.5572 0.0000 0.0000 -162409.3831 0.0000 -162409.3831 -162409.3831 0.0000 12968.0435 -6089.9340 534946.2959 12968.0435 -6089.9340
ENERGY: 240 139.3116 665.7978 2928.6044 0.0000 -182462.6175 15494.2985 343.5763 0.0000 0.0000 -162891.0289 0.0000 -162891.0289 -162891.0289 0.0000 13034.3622 -6102.9045 534946.2959 13034.3622 -6102.9045
ENERGY: 260 164.4670 683.7606 2921.6036 0.0000 -183940.9622 15800.0942 385.4942 0.0000 0.0000 -163985.5426 0.0000 -163985.5426 -163985.5426 0.0000 13031.7792 -6241.9627 534946.2959 13031.7792 -6241.9627
ENERGY: 280 168.9840 700.8586 2917.5974 0.0000 -185422.1637 16228.5141 454.8577 0.0000 0.0000 -164951.3519 0.0000 -164951.3519 -164951.3519 0.0000 13143.2752 -6334.3178 534946.2959 13143.2752 -6334.3178
ENERGY: 300 126.6763 639.5326 2916.2505 0.0000 -186094.1135 16445.5226 481.3747 0.0000 0.0000 -165484.7568 0.0000 -165484.7568 -165484.7568 0.0000 13207.5973 -6338.4306 534946.2959 13207.5973 -6338.4306
TCL: Setting parameter constraintScaling to 1.25
TCL: Minimizing for 100 steps
ETITLE: TS BOND ANGLE DIHED IMPRP ELECT VDW BOUNDARY MISC KINETIC TOTAL TEMP POTENTIAL TOTAL3 TEMPAVG PRESSURE GPRESSURE VOLUME PRESSAVG GPRESSAVG
ENERGY: 300 126.6763 639.5326 2916.2505 0.0000 -186094.1135 16445.5226 240.6874 0.0000 0.0000 -165725.4441 0.0000 -165725.4441 -165725.4441 0.0000 13655.9413 -26348.3570 534946.2959 13655.9413 -26348.3570
ENERGY: 320 264.1835 657.9135 2911.4705 0.0000 -186863.8481 16636.9065 287.4028 0.0000 0.0000 -166105.9713 0.0000 -166105.9713 -166105.9713 0.0000 13611.1996 -6005.8209 534946.2959 13611.1996 -6005.8209
ENERGY: 340 253.1952 648.3344 2912.5394 0.0000 -187625.9757 16895.8055 306.0442 0.0000 0.0000 -166610.0570 0.0000 -166610.0570 -166610.0570 0.0000 13612.7131 -6050.0342 534946.2959 13612.7131 -6050.0342
ENERGY: 360 180.7488 673.5016 2908.3014 0.0000 -188794.6474 17301.0634 345.4558 0.0000 0.0000 -167385.5764 0.0000 -167385.5764 -167385.5764 0.0000 13876.9177 -5987.1503 534946.2959 13876.9177 -5987.1503
ENERGY: 380 198.1118 647.4300 2900.8990 0.0000 -190488.1724 17969.8676 404.1637 0.0000 0.0000 -168367.7003 0.0000 -168367.7003 -168367.7003 0.0000 14038.7208 -5970.3604 534946.2959 14038.7208 -5970.3604
ENERGY: 400 139.2460 654.3206 2901.6669 0.0000 -190700.1741 18012.5201 402.0043 0.0000 0.0000 -168590.4162 0.0000 -168590.4162 -168590.4162 0.0000 14162.5836 -5915.7617 534946.2959 14162.5836 -5915.7617
TCL: Setting parameter constraintScaling to 0.625
TCL: Minimizing for 100 steps
ETITLE: TS BOND ANGLE DIHED IMPRP ELECT VDW BOUNDARY MISC KINETIC TOTAL TEMP POTENTIAL TOTAL3 TEMPAVG PRESSURE GPRESSURE VOLUME PRESSAVG GPRESSAVG
ENERGY: 400 139.2460 654.3206 2901.6669 0.0000 -190700.1741 18012.5201 201.0022 0.0000 0.0000 -168791.4184 0.0000 -168791.4184 -168791.4184 0.0000 14464.0575 -26616.3396 534946.2959 14464.0575 -26616.3396
ENERGY: 420 173.7797 641.7695 2898.2549 0.0000 -190995.7302 18086.0452 216.3150 0.0000 0.0000 -168979.5659 0.0000 -168979.5659 -168979.5659 0.0000 14358.0177 -5712.2044 534946.2959 14358.0177 -5712.2044
ENERGY: 440 195.4598 651.7404 2892.0545 0.0000 -191650.2140 18272.7075 245.5938 0.0000 0.0000 -169392.6580 0.0000 -169392.6580 -169392.6580 0.0000 14396.2906 -5752.6425 534946.2959 14396.2906 -5752.6425
ENERGY: 460 144.6951 639.4587 2885.0237 0.0000 -192342.2128 18512.6601 266.1348 0.0000 0.0000 -169894.2406 0.0000 -169894.2406 -169894.2406 0.0000 14530.6027 -5714.4056 534946.2959 14530.6027 -5714.4056
ENERGY: 480 293.4457 670.1685 2889.8069 0.0000 -193658.3890 19032.3883 299.8323 0.0000 0.0000 -170472.7472 0.0000 -170472.7472 -170472.7472 0.0000 14688.3379 -5683.3682 534946.2959 14688.3379 -5683.3682
ENERGY: 500 148.9471 647.8620 2881.2800 0.0000 -193712.5282 19051.9990 296.4022 0.0000 0.0000 -170686.0378 0.0000 -170686.0378 -170686.0378 0.0000 14771.1241 -5625.2653 534946.2959 14771.1241 -5625.2653
TCL: Setting parameter constraintScaling to 0.3125
TCL: Minimizing for 100 steps
ETITLE: TS BOND ANGLE DIHED IMPRP ELECT VDW BOUNDARY MISC KINETIC TOTAL TEMP POTENTIAL TOTAL3 TEMPAVG PRESSURE GPRESSURE VOLUME PRESSAVG GPRESSAVG
ENERGY: 500 148.9471 647.8620 2881.2800 0.0000 -193712.5282 19051.9990 148.2011 0.0000 0.0000 -170834.2389 0.0000 -170834.2389 -170834.2389 0.0000 14962.6146 -26827.0151 534946.2959 14962.6146 -26827.0151
ENERGY: 520 149.8527 641.6360 2878.3499 0.0000 -194076.4794 19170.4674 160.8930 0.0000 0.0000 -171075.2805 0.0000 -171075.2805 -171075.2805 0.0000 14984.1830 -5451.9900 534946.2959 14984.1830 -5451.9900
ENERGY: 540 165.9191 648.3574 2880.5112 0.0000 -194951.9850 19492.5839 182.5134 0.0000 0.0000 -171582.1001 0.0000 -171582.1001 -171582.1001 0.0000 15056.1004 -5455.3638 534946.2959 15056.1004 -5455.3638
ENERGY: 560 223.3940 661.7420 2869.1839 0.0000 -195957.6195 19892.1735 206.7165 0.0000 0.0000 -172104.4097 0.0000 -172104.4097 -172104.4097 0.0000 15255.0388 -5386.5668 534946.2959 15255.0388 -5386.5668
ENERGY: 580 161.5909 665.3021 2869.1691 0.0000 -196848.0757 20259.1096 227.9862 0.0000 0.0000 -172664.9179 0.0000 -172664.9179 -172664.9179 0.0000 15424.7133 -5327.6530 534946.2959 15424.7133 -5327.6530
ENERGY: 600 153.0831 643.6907 2862.3921 0.0000 -197299.0210 20453.9478 234.6270 0.0000 0.0000 -172951.2802 0.0000 -172951.2802 -172951.2802 0.0000 15511.4984 -5283.0988 534946.2959 15511.4984 -5283.0988
TCL: Setting parameter constraintScaling to 0.15625
TCL: Minimizing for 100 steps
ETITLE: TS BOND ANGLE DIHED IMPRP ELECT VDW BOUNDARY MISC KINETIC TOTAL TEMP POTENTIAL TOTAL3 TEMPAVG PRESSURE GPRESSURE VOLUME PRESSAVG GPRESSAVG
ENERGY: 600 153.0831 643.6907 2862.3921 0.0000 -197299.0210 20453.9478 117.3135 0.0000 0.0000 -173068.5937 0.0000 -173068.5937 -173068.5937 0.0000 15637.7171 -26997.8863 534946.2959 15637.7171 -26997.8863
ENERGY: 620 152.7007 642.1307 2855.8149 0.0000 -197892.2215 20643.9027 127.2331 0.0000 0.0000 -173470.4392 0.0000 -173470.4392 -173470.4392 0.0000 15710.3870 -5153.7893 534946.2959 15710.3870 -5153.7893
ENERGY: 640 260.7758 667.0160 2855.2286 0.0000 -198462.3484 20836.0822 132.9427 0.0000 0.0000 -173710.3030 0.0000 -173710.3030 -173710.3030 0.0000 15793.5399 -5140.8809 534946.2959 15793.5399 -5140.8809
ENERGY: 660 156.3019 646.7016 2853.9016 0.0000 -199282.0867 21154.1276 141.6215 0.0000 0.0000 -174329.4325 0.0000 -174329.4325 -174329.4325 0.0000 15966.4764 -5059.8589 534946.2959 15966.4764 -5059.8589
ENERGY: 680 260.6273 666.5902 2843.3289 0.0000 -199670.9964 21295.8563 151.8452 0.0000 0.0000 -174452.7485 0.0000 -174452.7485 -174452.7485 0.0000 15984.6879 -5084.5032 534946.2959 15984.6879 -5084.5032
ENERGY: 700 169.3647 671.6688 2843.2844 0.0000 -200398.8538 21570.4081 164.4373 0.0000 0.0000 -174979.6904 0.0000 -174979.6904 -174979.6904 0.0000 16113.5152 -5046.9538 534946.2959 16113.5152 -5046.9538
TCL: Setting parameter constraintScaling to 0.078125
TCL: Minimizing for 100 steps
ETITLE: TS BOND ANGLE DIHED IMPRP ELECT VDW BOUNDARY MISC KINETIC TOTAL TEMP POTENTIAL TOTAL3 TEMPAVG PRESSURE GPRESSURE VOLUME PRESSAVG GPRESSAVG
ENERGY: 700 169.3647 671.6688 2843.2844 0.0000 -200398.8538 21570.4081 82.2186 0.0000 0.0000 -175061.9090 0.0000 -175061.9090 -175061.9090 0.0000 16190.0094 -27182.7055 534946.2959 16190.0094 -27182.7055
ENERGY: 720 169.0405 647.9584 2837.8266 0.0000 -200566.5870 21607.5845 80.9496 0.0000 0.0000 -175223.2275 0.0000 -175223.2275 -175223.2275 0.0000 16231.5616 -4943.7322 534946.2959 16231.5616 -4943.7322
ENERGY: 740 173.5560 656.8628 2840.2320 0.0000 -200801.1566 21691.4471 82.5842 0.0000 0.0000 -175356.4745 0.0000 -175356.4745 -175356.4745 0.0000 16290.2832 -4920.5935 534946.2959 16290.2832 -4920.5935
ENERGY: 760 174.8178 656.9423 2835.6697 0.0000 -201131.0144 21818.4683 86.5244 0.0000 0.0000 -175558.5919 0.0000 -175558.5919 -175558.5919 0.0000 16311.4634 -4925.2015 534946.2959 16311.4634 -4925.2015
ENERGY: 780 158.5350 647.7799 2833.3697 0.0000 -201346.9447 21901.1739 88.6997 0.0000 0.0000 -175717.3866 0.0000 -175717.3866 -175717.3866 0.0000 16371.7254 -4897.6971 534946.2959 16371.7254 -4897.6971
ENERGY: 800 203.7499 675.8603 2832.3461 0.0000 -201786.2733 22076.2464 92.3107 0.0000 0.0000 -175905.7599 0.0000 -175905.7599 -175905.7599 0.0000 16441.0169 -4884.6099 534946.2959 16441.0169 -4884.6099
TCL: Setting parameter constraintScaling to 0.0390625
TCL: Minimizing for 100 steps
ETITLE: TS BOND ANGLE DIHED IMPRP ELECT VDW BOUNDARY MISC KINETIC TOTAL TEMP POTENTIAL TOTAL3 TEMPAVG PRESSURE GPRESSURE VOLUME PRESSAVG GPRESSAVG
ENERGY: 800 203.7499 675.8603 2832.3461 0.0000 -201786.2733 22076.2464 46.1554 0.0000 0.0000 -175951.9153 0.0000 -175951.9153 -175951.9153 0.0000 16482.5028 -27231.9758 534946.2959 16482.5028 -27231.9758
ENERGY: 820 234.4197 714.2128 2834.2828 0.0000 -201995.9291 22145.5678 47.6414 0.0000 0.0000 -176019.8046 0.0000 -176019.8046 -176019.8046 0.0000 16511.2766 -4840.4195 534946.2959 16511.2766 -4840.4195
ENERGY: 840 271.8763 667.7087 2827.9463 0.0000 -202312.0377 22275.3237 49.3427 0.0000 0.0000 -176219.8400 0.0000 -176219.8400 -176219.8400 0.0000 16561.6704 -4822.8344 534946.2959 16561.6704 -4822.8344
ENERGY: 860 161.9776 648.1745 2825.0180 0.0000 -202575.9563 22379.8651 50.5749 0.0000 0.0000 -176510.3462 0.0000 -176510.3462 -176510.3462 0.0000 16644.6441 -4770.9044 534946.2959 16644.6441 -4770.9044
ENERGY: 880 283.1711 685.5242 2823.4884 0.0000 -203207.2109 22639.8328 53.7225 0.0000 0.0000 -176721.4717 0.0000 -176721.4717 -176721.4717 0.0000 16754.2574 -4738.7366 534946.2959 16754.2574 -4738.7366
ENERGY: 900 167.2861 653.9634 2816.9142 0.0000 -203955.4584 22978.5283 57.9818 0.0000 0.0000 -177280.7846 0.0000 -177280.7846 -177280.7846 0.0000 16944.1429 -4637.0633 534946.2959 16944.1429 -4637.0633
TCL: Setting parameter constraintScaling to 0.01953125
TCL: Minimizing for 100 steps
ETITLE: TS BOND ANGLE DIHED IMPRP ELECT VDW BOUNDARY MISC KINETIC TOTAL TEMP POTENTIAL TOTAL3 TEMPAVG PRESSURE GPRESSURE VOLUME PRESSAVG GPRESSAVG
ENERGY: 900 167.2861 653.9634 2816.9142 0.0000 -203955.4584 22978.5283 28.9909 0.0000 0.0000 -177309.7755 0.0000 -177309.7755 -177309.7755 0.0000 16968.0534 -27261.9509 534946.2959 16968.0534 -27261.9509
ENERGY: 920 165.8656 656.8758 2816.5523 0.0000 -204050.8998 23009.2442 29.2053 0.0000 0.0000 -177373.1566 0.0000 -177373.1566 -177373.1566 0.0000 16980.9000 -4606.0111 534946.2959 16980.9000 -4606.0111
ENERGY: 940 234.1287 660.9197 2815.2689 0.0000 -204360.0020 23149.4513 30.0590 0.0000 0.0000 -177470.1746 0.0000 -177470.1746 -177470.1746 0.0000 17047.4036 -4584.0289 534946.2959 17047.4036 -4584.0289
ENERGY: 960 213.1760 677.0614 2814.1980 0.0000 -204469.8067 23188.1879 30.4140 0.0000 0.0000 -177546.7693 0.0000 -177546.7693 -177546.7693 0.0000 17068.6743 -4571.9915 534946.2959 17068.6743 -4571.9915
ENERGY: 980 180.9441 661.6154 2811.3241 0.0000 -204932.1277 23392.4489 32.0143 0.0000 0.0000 -177853.7808 0.0000 -177853.7808 -177853.7808 0.0000 17177.1934 -4520.7672 534946.2959 17177.1934 -4520.7672
ENERGY: 1000 165.0627 659.0634 2808.5749 0.0000 -205904.3338 23863.0089 35.3124 0.0000 0.0000 -178373.3116 0.0000 -178373.3116 -178373.3116 0.0000 17412.7963 -4395.3675 534946.2959 17412.7963 -4395.3675
TCL: Setting parameter constraintScaling to 0
TCL: Minimizing for 5000 steps
ETITLE: TS BOND ANGLE DIHED IMPRP ELECT VDW BOUNDARY MISC KINETIC TOTAL TEMP POTENTIAL TOTAL3 TEMPAVG PRESSURE GPRESSURE VOLUME PRESSAVG GPRESSAVG
ENERGY: 1000 165.0627 659.0634 2808.5749 0.0000 -205904.3338 23863.0089 0.0000 0.0000 0.0000 -178408.6240 0.0000 -178408.6240 -178408.6240 0.0000 17440.0027 -27256.3829 534946.2959 17440.0027 -27256.3829
ENERGY: 2000 168.1052 662.8631 2801.1752 0.0000 -214892.4184 27814.3638 0.0000 0.0000 0.0000 -183445.9112 0.0000 -183445.9112 -183445.9112 0.0000 19530.7970 -3280.7507 534946.2959 19530.7970 -3280.7507
ENERGY: 3000 169.9074 666.7851 2797.3218 0.0000 -217508.4914 28868.0842 0.0000 0.0000 0.0000 -185006.3929 0.0000 -185006.3929 -185006.3929 0.0000 20092.6641 -2992.3622 534946.2959 20092.6641 -2992.3622
ENERGY: 4000 173.3426 668.2612 2788.5148 0.0000 -218854.5979 29438.2304 0.0000 0.0000 0.0000 -185786.2489 0.0000 -185786.2489 -185786.2489 0.0000 20404.1220 -2826.5069 534946.2959 20404.1220 -2826.5069
ENERGY: 5000 171.1597 668.9332 2781.3166 0.0000 -219529.7349 29688.0359 0.0000 0.0000 0.0000 -186220.2894 0.0000 -186220.2894 -186220.2894 0.0000 20530.8726 -2774.7437 534946.2959 20530.8726 -2774.7437
ENERGY: 6000 164.8114 666.6173 2779.0208 0.0000 -219967.1209 29872.0421 0.0000 0.0000 0.0000 -186484.6293 0.0000 -186484.6293 -186484.6293 0.0000 20628.8216 -2719.5178 534946.2959 20628.8216 -2719.5178
