Info: SIMULATION PARAMETERS:
Info: TIMESTEP               1
Info: NUMBER OF STEPS        0
Info: STEPS PER CYCLE        10
Info: PERIODIC CELL BASIS 1  72.449 0 0
Info: PERIODIC CELL BASIS 2  0 93.247 0
Info: PERIODIC CELL BASIS 3  0 0 79.185
Info: PERIODIC CELL CENTER   -0.248 -0.156 -0.047
Info: WRAPPING WATERS AROUND PERIODIC BOUNDARIES ON OUTPUT.
Info: WRAPPING ALL CLUSTERS AROUND PERIODIC BOUNDARIES ON OUTPUT.
Info: FIRST LDB TIMESTEP     50
Info: LAST LDB TIMESTEP     -1
Info: HOM BACKGROUND SCALING 1
Info: PME BACKGROUND SCALING 1
Info: MIN ATOMS PER PATCH    40
Info: VELOCITY FILE          ../replicas/rep127/equilibration/eq1.vel
Info: CENTER OF MASS MOVING INITIALLY? NO
Info: DIELECTRIC             1
Info: EXCLUDE                SCALED ONE-FOUR
Info: 1-4 ELECTROSTATICS SCALED BY 0.833333
Info: MODIFIED 1-4 VDW PARAMETERS WILL BE USED
Info: DCD FILENAME           ../replicas/rep127/equilibration/eq2.dcd
Info: DCD FREQUENCY          5000
Info: DCD FIRST STEP         5000
Info: DCD FILE WILL CONTAIN UNIT CELL DATA
Info: XST FILENAME           ../replicas/rep127/equilibration/eq2.xst
Info: XST FREQUENCY          5000
Info: NO VELOCITY DCD OUTPUT
Info: NO FORCE DCD OUTPUT
Info: OUTPUT FILENAME        ../replicas/rep127/equilibration/eq2
Info: RESTART FILENAME       ../replicas/rep127/equilibration/eq2.restart
Info: RESTART FREQUENCY      5000
Info: BINARY RESTART FILES WILL BE USED
Info: SWITCHING ACTIVE
Info: SWITCHING ON           10
Info: SWITCHING OFF          12
Info: PAIRLIST DISTANCE      13.5
Info: PAIRLIST SHRINK RATE   0.01
Info: PAIRLIST GROW RATE     0.01
Info: PAIRLIST TRIGGER       0.3
Info: PAIRLISTS PER CYCLE    2
Info: PAIRLISTS ENABLED
Info: MARGIN                 0.48
Info: HYDROGEN GROUP CUTOFF  2.5
Info: PATCH DIMENSION        16.48
Info: ENERGY OUTPUT STEPS    500
Info: CROSSTERM ENERGY INCLUDED IN DIHEDRAL
Info: TIMING OUTPUT STEPS    5000
Info: PRESSURE OUTPUT STEPS  500
Info: HARMONIC CONSTRAINTS ACTIVE
Info: HARMONIC CONS EXP      2
Info: HARMONIC CONS SCALING  10
Info: LANGEVIN DYNAMICS ACTIVE
Info: LANGEVIN TEMPERATURE   300
Info: LANGEVIN USING BBK INTEGRATOR
Info: LANGEVIN DAMPING COEFFICIENT IS 5 INVERSE PS
Info: LANGEVIN DYNAMICS NOT APPLIED TO HYDROGENS
Info: BERENDSEN PRESSURE COUPLING ACTIVE
Info:     TARGET PRESSURE IS 1 BAR
Info:     COMPRESSIBILITY ESTIMATE IS 4.57e-05 BAR^(-1)
Info:     RELAXATION TIME IS 100 FS
Info:     APPLIED EVERY 2 STEPS
Info:     PRESSURE CONTROL IS GROUP-BASED
Info:       CELL FLUCTUATION IS ISOTROPIC
Info: PARTICLE MESH EWALD (PME) ACTIVE
Info: PME TOLERANCE               1e-06
Info: PME EWALD COEFFICIENT       0.257952
Info: PME INTERPOLATION ORDER     4
Info: PME GRID DIMENSIONS         80 96 80
Info: PME MAXIMUM GRID SPACING    1
Info: FULL ELECTROSTATIC EVALUATION FREQUENCY      2
Info: USING VERLET I (r-RESPA) MTS SCHEME.
Info: C1 SPLITTING OF LONG RANGE ELECTROSTATICS
Info: PLACING ATOMS IN PATCHES BY HYDROGEN GROUPS
Info: RIGID BONDS TO HYDROGEN : WATER
Info:         ERROR TOLERANCE : 1e-05
Info:          MAX ITERATIONS : 100
Info: RIGID WATER USING SETTLE ALGORITHM
Info: RANDOM NUMBER SEED     1503693944
Info: USE HYDROGEN BONDS?    NO
Info: Using AMBER format force field!
Info: AMBER PARM FILE        ../build/complex.top
Info: COORDINATE PDB         ../replicas/rep127/equilibration/eq1.coor
Info: Exclusions in PARM file will be ignored!
Info: SCNB (VDW SCALING)     2
Info: USING ARITHMETIC MEAN TO COMBINE L-J SIGMA PARAMETERS
Info: SUMMARY OF PARAMETERS:
Info: 71 BONDS
Info: 145 ANGLES
Info:   145 HARMONIC
Info:   0 COSINE-BASED
Info: 76 DIHEDRAL
Info: 0 IMPROPER
Info: 0 CROSSTERM
Info: 0 VDW
Info: 190 VDW_PAIRS
Info: 0 NBTHOLE_PAIRS
Info: STRUCTURE SUMMARY:
Info: 49394 ATOMS
Info: 49448 BONDS
Info: 8698 ANGLES
Info: 18780 DIHEDRALS
Info: 0 IMPROPERS
Info: 0 CROSSTERMS
Info: 0 EXCLUSIONS
Info: 2336 CONSTRAINTS
Info: 44667 RIGID BONDS
Info: 103515 DEGREES OF FREEDOM
Info: 17225 HYDROGEN GROUPS
Info: 4 ATOMS IN LARGEST HYDROGEN GROUP
Info: 17225 MIGRATION GROUPS
Info: 4 ATOMS IN LARGEST MIGRATION GROUP
Info: TOTAL MASS = 301478 amu
Info: TOTAL CHARGE = 1.00115e-05 e
Info: MASS DENSITY = 0.935846 g/cm^3
Info: ATOM DENSITY = 0.0923345 atoms/A^3
Info: ADDED 70656 IMPLICIT EXCLUSIONS
Info: NONBONDED TABLE R-SQUARED SPACING: 0.0625
Info: NONBONDED TABLE SIZE: 769 POINTS
Info: REMOVING COM VELOCITY 0.0180217 0.0037356 -0.0245837
TCL: Running for 5000 steps
ETITLE: TS BOND ANGLE DIHED IMPRP ELECT VDW BOUNDARY MISC KINETIC TOTAL TEMP POTENTIAL TOTAL3 TEMPAVG PRESSURE GPRESSURE VOLUME PRESSAVG GPRESSAVG
ENERGY: 0 385.8660 1215.2741 2922.9371 0.0000 -212749.6250 29567.7292 0.0000 0.0000 10049.8558 -168607.9628 97.7118 -178657.8186 -168598.3132 97.7118 -2351.0812 -2454.7243 534946.2959 -2351.0812 -2454.7243
ENERGY: 1000 1311.1737 1988.2741 3113.1788 0.0000 -193224.5036 26149.3941 772.1289 0.0000 24150.8104 -135739.5435 234.8112 -159890.3539 -135708.7255 218.6227 -87.6133 -49.1000 521476.7774 -12.2992 -12.3246
ENERGY: 2000 1460.7539 2150.3357 3122.2656 0.0000 -184557.2137 23556.1567 799.4131 0.0000 27976.1692 -125492.1195 272.0040 -153468.2887 -125444.4941 264.3343 -48.3273 -2.8860 514809.6157 -44.2518 -43.8634
ENERGY: 3000 1573.1504 2222.5517 3148.5304 0.0000 -179448.8691 21662.0788 820.1371 0.0000 29793.7144 -120228.7063 289.6755 -150022.4206 -120182.2565 284.4145 -3.4895 -4.6894 509854.1760 -23.2410 -23.2455
ENERGY: 4000 1594.5252 2273.8991 3129.7306 0.0000 -177430.8491 20846.3422 809.4657 0.0000 30292.4498 -118484.4364 294.5245 -148776.8863 -118444.2809 292.6097 -34.1316 -17.3052 505946.1937 -25.7411 -25.8494
ENERGY: 5000 1564.6238 2236.9282 3149.3894 0.0000 -175802.1875 20333.6393 768.7190 0.0000 30429.3158 -117319.5719 295.8553 -147748.8877 -117271.0013 296.2787 37.5280 35.8959 504734.5313 -6.9834 -7.1241
TCL: Setting parameter constraintScaling to 5.0
TCL: Running for 5000 steps
ETITLE: TS BOND ANGLE DIHED IMPRP ELECT VDW BOUNDARY MISC KINETIC TOTAL TEMP POTENTIAL TOTAL3 TEMPAVG PRESSURE GPRESSURE VOLUME PRESSAVG GPRESSAVG
ENERGY: 5000 1564.6238 2236.9282 3149.3894 0.0000 -175802.1875 20333.6393 384.3595 0.0000 30427.2615 -117705.9857 295.8353 -148133.2472 -117664.5135 295.8353 -62.3140 -62.1924 504734.5313 -62.3140 -62.1924
ENERGY: 6000 1590.8289 2279.9410 3166.4757 0.0000 -175512.4050 20061.3134 645.5331 0.0000 30825.8956 -116942.4173 299.7111 -147768.3129 -116895.9224 298.1988 -79.6982 -17.4782 502044.6184 -17.3041 -16.8705
ENERGY: 7000 1599.9453 2280.4738 3153.4416 0.0000 -175622.7211 20428.8014 657.1970 0.0000 30748.6939 -116754.1680 298.9605 -147502.8620 -116700.5474 298.7044 -19.5531 -12.5992 501936.2508 -1.6077 -1.4239
ENERGY: 8000 1558.3692 2324.1499 3204.0203 0.0000 -175269.0447 19974.4353 624.7451 0.0000 30920.5449 -116662.7801 300.6313 -147583.3249 -116623.4657 299.0578 -121.1991 -39.6531 502824.4875 5.8858 5.7458
ENERGY: 9000 1620.0102 2307.6088 3165.8538 0.0000 -175452.9691 20134.7109 651.9174 0.0000 30681.2851 -116891.5829 298.3051 -147572.8680 -116831.2877 299.2422 -54.3192 14.0718 503100.2490 -5.6683 -5.3174
ENERGY: 10000 1626.9854 2284.4647 3159.3125 0.0000 -175280.8075 19893.7886 638.1294 0.0000 30857.8561 -116820.2707 300.0218 -147678.1268 -116774.0830 298.7551 -48.2052 -5.0638 501951.7423 6.8416 6.2333
TCL: Setting parameter constraintScaling to 2.5
TCL: Running for 5000 steps
ETITLE: TS BOND ANGLE DIHED IMPRP ELECT VDW BOUNDARY MISC KINETIC TOTAL TEMP POTENTIAL TOTAL3 TEMPAVG PRESSURE GPRESSURE VOLUME PRESSAVG GPRESSAVG
ENERGY: 10000 1626.9854 2284.4647 3159.3125 0.0000 -175280.8075 19893.7886 319.0647 0.0000 30855.8199 -117141.3716 300.0020 -147997.1915 -117101.8910 300.0020 -147.0500 -112.1855 501951.7423 -147.0500 -112.1855
ENERGY: 11000 1640.7735 2318.9882 3194.9292 0.0000 -175791.8584 20183.5133 520.7426 0.0000 30841.5690 -117091.3426 299.8635 -147932.9117 -117048.7101 299.4561 18.9597 24.2866 500542.8313 5.3584 4.9363
ENERGY: 12000 1627.9890 2407.0530 3193.1318 0.0000 -175895.0933 20426.0172 502.8059 0.0000 30806.1484 -116931.9479 299.5191 -147738.0963 -116881.6596 299.7026 -2.0855 -57.8939 499798.9035 -0.7906 -1.4727
ENERGY: 13000 1608.5851 2295.9487 3185.8276 0.0000 -175909.1140 20230.5820 528.0342 0.0000 30892.7531 -117167.3834 300.3611 -148060.1365 -117128.4118 300.1199 2.8270 42.6185 499420.3174 8.4020 8.2072
ENERGY: 14000 1607.1907 2296.5912 3181.5865 0.0000 -175100.3357 19932.2781 485.5112 0.0000 30700.2321 -116896.9459 298.4893 -147597.1780 -116857.7029 299.4082 11.1221 40.6762 501787.2707 20.6944 20.6630
ENERGY: 15000 1618.3531 2350.3922 3209.6001 0.0000 -175817.3876 20293.5352 497.6258 0.0000 30794.7314 -117053.1499 299.4081 -147847.8813 -117005.0993 300.2257 -49.6461 -51.4469 500243.3193 -7.9883 -8.1387
TCL: Setting parameter constraintScaling to 1.25
TCL: Running for 5000 steps
ETITLE: TS BOND ANGLE DIHED IMPRP ELECT VDW BOUNDARY MISC KINETIC TOTAL TEMP POTENTIAL TOTAL3 TEMPAVG PRESSURE GPRESSURE VOLUME PRESSAVG GPRESSAVG
ENERGY: 15000 1618.3531 2350.3922 3209.6001 0.0000 -175817.3876 20293.5352 248.8129 0.0000 30792.6785 -117304.0157 299.3881 -148096.6942 -117259.7139 299.3881 -55.2625 -64.0547 500243.3193 -55.2625 -64.0547
ENERGY: 16000 1656.2912 2383.2313 3190.1337 0.0000 -175719.3263 20119.4669 402.3224 0.0000 30815.7304 -117152.1504 299.6122 -147967.8808 -117111.4700 299.5217 53.6703 115.8976 497964.1246 -4.2703 -4.3616
ENERGY: 17000 1652.2598 2329.4768 3183.7159 0.0000 -175796.7190 20244.9171 370.1559 0.0000 30951.9662 -117064.2273 300.9368 -148016.1935 -117017.4209 300.2809 13.2659 30.4735 499203.4870 0.7019 1.0591
ENERGY: 18000 1642.8547 2346.7715 3183.4270 0.0000 -175767.7795 20136.9643 399.8555 0.0000 31023.9385 -117033.9680 301.6366 -148057.9065 -116991.0140 300.6000 -50.5384 -38.4110 498807.2089 -0.4642 -0.5079
ENERGY: 19000 1656.7331 2370.1893 3187.9535 0.0000 -175688.9298 20117.7385 399.1280 0.0000 30781.8182 -117175.3692 299.2825 -147957.1874 -117125.6772 299.5688 -6.1837 -51.8249 498530.5942 10.2616 9.9940
ENERGY: 20000 1562.1558 2345.4935 3225.6433 0.0000 -175959.6544 20149.9383 405.0113 0.0000 31032.8934 -117238.5188 301.7237 -148271.4122 -117188.3065 299.6633 10.3855 -42.8156 499025.8995 0.3121 0.3186
TCL: Setting parameter constraintScaling to 0.625
TCL: Running for 5000 steps
ETITLE: TS BOND ANGLE DIHED IMPRP ELECT VDW BOUNDARY MISC KINETIC TOTAL TEMP POTENTIAL TOTAL3 TEMPAVG PRESSURE GPRESSURE VOLUME PRESSAVG GPRESSAVG
ENERGY: 20000 1562.1558 2345.4935 3225.6433 0.0000 -175959.6544 20149.9383 202.5056 0.0000 31030.8250 -117443.0929 301.7035 -148473.9179 -117397.9643 301.7035 12.4800 -42.7298 499025.8995 12.4800 -42.7298
ENERGY: 21000 1616.3402 2341.2195 3190.0706 0.0000 -176109.1405 20440.9102 325.1610 0.0000 30846.4965 -117348.9424 299.9114 -148195.4389 -117311.1053 300.0794 -53.1864 4.3658 497943.3041 -12.0378 -11.9507
ENERGY: 22000 1603.8267 2345.6118 3207.7935 0.0000 -176052.5637 20122.4244 322.4938 0.0000 30953.5227 -117496.8908 300.9520 -148450.4135 -117450.9632 299.4580 -72.6068 2.7179 497165.4708 -8.7149 -8.7588
ENERGY: 23000 1648.2412 2408.5997 3223.5159 0.0000 -175875.4829 20033.3460 320.4734 0.0000 30701.3758 -117539.9308 298.5004 -148241.3066 -117493.4108 298.9567 9.7054 -23.9876 496930.8656 -2.4243 -2.0410
ENERGY: 24000 1616.0344 2394.4700 3209.2311 0.0000 -176011.2739 20104.2355 319.8657 0.0000 30878.7746 -117488.6627 300.2252 -148367.4372 -117438.1764 299.5100 -117.4960 -34.2502 498125.0189 0.9031 0.7505
ENERGY: 25000 1637.4191 2399.1565 3200.3423 0.0000 -175834.5594 19884.0117 318.0698 0.0000 30825.6135 -117569.9464 299.7083 -148395.5599 -117524.8815 299.7727 -102.6961 -67.7908 498320.5364 7.2723 7.7416
TCL: Setting parameter constraintScaling to 0.3125
TCL: Running for 5000 steps
ETITLE: TS BOND ANGLE DIHED IMPRP ELECT VDW BOUNDARY MISC KINETIC TOTAL TEMP POTENTIAL TOTAL3 TEMPAVG PRESSURE GPRESSURE VOLUME PRESSAVG GPRESSAVG
ENERGY: 25000 1637.4191 2399.1565 3200.3423 0.0000 -175834.5594 19884.0117 159.0349 0.0000 30823.5668 -117731.0280 299.6884 -148554.5948 -117687.6785 299.6884 -159.2538 -131.4707 498320.5364 -159.2538 -131.4707
ENERGY: 26000 1581.0285 2374.4003 3194.8921 0.0000 -175477.4033 20046.5465 245.2878 0.0000 30807.7346 -117227.5135 299.5345 -148035.2481 -117162.6906 300.3296 -19.9935 10.7282 499211.0326 9.9262 10.3349
ENERGY: 27000 1605.3592 2374.0972 3216.0896 0.0000 -176410.5136 20219.9484 265.5921 0.0000 30824.8658 -117904.5612 299.7011 -148729.4271 -117858.1296 299.3904 -113.4221 -25.3585 496347.9962 -12.6843 -12.1231
ENERGY: 28000 1608.1545 2357.2927 3209.4280 0.0000 -175955.6754 20193.5551 242.3941 0.0000 30741.2548 -117603.5961 298.8881 -148344.8509 -117543.8608 298.3300 -90.9770 -16.7791 498144.5425 16.9281 16.7292
ENERGY: 29000 1654.3816 2416.9094 3202.5944 0.0000 -175858.1109 20204.3486 258.8312 0.0000 30777.8460 -117343.1996 299.2439 -148121.0457 -117296.4947 300.2952 -42.1781 13.0775 498567.0651 -0.8250 -0.3427
ENERGY: 30000 1617.6500 2377.5927 3215.4714 0.0000 -175924.3796 20032.5816 249.3683 0.0000 30788.4287 -117643.2869 299.3468 -148431.7156 -117608.0158 298.8175 -38.7899 72.4145 497184.0645 -7.2254 -7.2147
TCL: Setting parameter constraintScaling to 0.15625
TCL: Running for 5000 steps
ETITLE: TS BOND ANGLE DIHED IMPRP ELECT VDW BOUNDARY MISC KINETIC TOTAL TEMP POTENTIAL TOTAL3 TEMPAVG PRESSURE GPRESSURE VOLUME PRESSAVG GPRESSAVG
ENERGY: 30000 1617.6500 2377.5927 3215.4714 0.0000 -175924.3796 20032.5816 124.6842 0.0000 30786.3539 -117770.0459 299.3266 -148556.3998 -117727.7717 299.3266 -63.6834 44.5906 497184.0645 -63.6834 44.5906
ENERGY: 31000 1650.9513 2335.7005 3198.5090 0.0000 -175748.7196 20148.3308 178.8100 0.0000 30711.7977 -117524.6203 298.6017 -148236.4180 -117483.4538 299.2881 62.0909 -27.6057 498371.0584 11.1426 10.7376
ENERGY: 32000 1648.4006 2392.2525 3189.3649 0.0000 -175794.7019 20042.7894 190.6607 0.0000 30775.9111 -117555.3226 299.2251 -148331.2337 -117506.5546 299.2783 62.3490 34.8794 497808.8430 -4.6375 -4.3639
ENERGY: 33000 1634.0296 2433.9871 3248.1251 0.0000 -175515.1126 19928.0968 190.6606 0.0000 30804.1703 -117276.0430 299.4999 -148080.2133 -117230.0186 299.4737 -184.7662 -62.2808 498095.7996 2.1335 2.8554
ENERGY: 34000 1638.6757 2395.9257 3227.4481 0.0000 -175392.3281 19974.7317 217.5099 0.0000 30792.7564 -117145.2807 299.3889 -147938.0371 -117103.3954 300.2157 -118.8588 -24.6915 498160.8453 1.5026 1.3818
ENERGY: 35000 1672.4119 2410.9914 3220.0406 0.0000 -175437.4125 19971.9949 211.5985 0.0000 30900.3265 -117050.0487 300.4348 -147950.3752 -117014.0134 300.2725 -159.4125 -3.1187 498579.1745 12.4718 12.3295
TCL: Setting parameter constraintScaling to 0.078125
TCL: Running for 5000 steps
ETITLE: TS BOND ANGLE DIHED IMPRP ELECT VDW BOUNDARY MISC KINETIC TOTAL TEMP POTENTIAL TOTAL3 TEMPAVG PRESSURE GPRESSURE VOLUME PRESSAVG GPRESSAVG
ENERGY: 35000 1672.4119 2410.9914 3220.0406 0.0000 -175437.4125 19971.9949 105.7992 0.0000 30898.2634 -117157.9111 300.4147 -148056.1744 -117117.7386 300.4147 -175.4217 -27.1474 498579.1745 -175.4217 -27.1474
ENERGY: 36000 1644.5462 2455.5206 3239.4636 0.0000 -175424.8038 20030.1815 142.7793 0.0000 31036.4058 -116875.9069 301.7578 -147912.3127 -116831.4280 300.8859 92.9125 111.7674 498859.5746 4.4750 4.5625
ENERGY: 37000 1614.4212 2368.4412 3221.7030 0.0000 -176116.4487 20238.3269 149.9861 0.0000 30939.1320 -117584.4383 300.8120 -148523.5703 -117530.9836 300.2673 -0.7953 94.4730 497057.8569 0.2986 0.2366
ENERGY: 38000 1663.8666 2355.2650 3237.1782 0.0000 -175988.5755 20091.4273 153.5923 0.0000 30703.2615 -117783.9845 298.5187 -148487.2461 -117743.5438 299.7247 -151.5072 -31.9864 497127.1590 13.1600 13.0270
ENERGY: 39000 1630.4574 2444.1525 3209.4026 0.0000 -175784.7137 20068.9396 162.5788 0.0000 30898.3050 -117370.8777 300.4151 -148269.1827 -117336.5740 300.0038 11.5526 16.8225 498734.9515 12.0840 11.6149
ENERGY: 40000 1649.5844 2395.2048 3212.6662 0.0000 -175820.2047 20025.7244 151.1901 0.0000 30839.1612 -117546.6736 299.8401 -148385.8348 -117499.3977 299.5946 99.4835 36.7167 496700.9658 -7.4227 -7.5773
TCL: Setting parameter constraintScaling to 0.0390625
TCL: Running for 5000 steps
ETITLE: TS BOND ANGLE DIHED IMPRP ELECT VDW BOUNDARY MISC KINETIC TOTAL TEMP POTENTIAL TOTAL3 TEMPAVG PRESSURE GPRESSURE VOLUME PRESSAVG GPRESSAVG
ENERGY: 40000 1649.5844 2395.2048 3212.6662 0.0000 -175820.2047 20025.7244 75.5950 0.0000 30837.1096 -117624.3202 299.8201 -148461.4298 -117580.8022 299.8201 96.8335 38.0623 496700.9658 96.8335 38.0623
ENERGY: 41000 1695.7335 2370.5680 3230.2909 0.0000 -175432.1270 20022.8102 107.3356 0.0000 30901.9218 -117103.4671 300.4503 -148005.3888 -117056.2151 300.3649 -21.4036 -13.0751 497682.2646 6.1219 6.6450
ENERGY: 42000 1628.6772 2409.1988 3247.8732 0.0000 -175770.9493 20051.0318 116.3395 0.0000 30717.8224 -117600.0064 298.6603 -148317.8288 -117551.0034 300.2318 -53.5053 45.5024 497718.4136 5.4237 5.8848
ENERGY: 43000 1646.6676 2387.9733 3187.1241 0.0000 -176060.5548 20133.6727 125.5929 0.0000 30504.2268 -118075.2974 296.5836 -148579.5242 -118031.0017 299.1415 7.7863 6.5546 497034.7774 0.1146 0.4437
ENERGY: 44000 1644.6896 2437.8203 3172.8690 0.0000 -176238.7944 20077.1913 137.0584 0.0000 30720.5653 -118048.6006 298.6870 -148769.1659 -118002.8632 298.9247 -13.9084 -1.3331 494719.6712 -4.7955 -5.9692
ENERGY: 45000 1694.5782 2384.7936 3232.3682 0.0000 -176377.0941 20054.2590 121.4194 0.0000 30843.4507 -118046.2250 299.8818 -148889.6757 -118007.2527 297.9159 -110.6016 -42.0574 495655.7915 1.0364 1.3606
TCL: Setting parameter constraintScaling to 0.01953125
TCL: Running for 5000 steps
ETITLE: TS BOND ANGLE DIHED IMPRP ELECT VDW BOUNDARY MISC KINETIC TOTAL TEMP POTENTIAL TOTAL3 TEMPAVG PRESSURE GPRESSURE VOLUME PRESSAVG GPRESSAVG
ENERGY: 45000 1694.5782 2384.7936 3232.3682 0.0000 -176377.0941 20054.2590 60.7097 0.0000 30841.4147 -118108.9707 299.8620 -148950.3854 -118069.9484 299.8620 -126.8652 -54.2458 495655.7915 -126.8652 -54.2458
ENERGY: 46000 1644.2933 2375.4328 3250.3320 0.0000 -175952.2812 20043.9952 77.9381 0.0000 30812.6714 -117747.6183 299.5825 -148560.2898 -117699.4159 299.9696 -22.9769 -14.4443 495544.5828 6.3814 6.2824
ENERGY: 47000 1619.1733 2360.0182 3228.3078 0.0000 -175906.2262 20028.3144 77.7641 0.0000 30594.9479 -117997.7005 297.4656 -148592.6484 -117948.1330 299.1437 54.0862 61.8118 497085.4770 25.7328 25.9296
ENERGY: 48000 1617.0395 2488.6257 3212.4053 0.0000 -175788.2302 19902.7873 85.8357 0.0000 30784.7226 -117696.8141 299.3108 -148481.5367 -117658.5060 299.9954 -38.6102 -63.2592 496732.0925 3.9933 4.2283
ENERGY: 49000 1619.6185 2355.9581 3205.5294 0.0000 -176060.0425 19934.9708 78.4996 0.0000 30621.2505 -118244.2157 297.7214 -148865.4661 -118197.3324 298.1347 -29.7693 -30.3053 495481.5785 0.1891 0.4642
ENERGY: 50000 1609.9127 2426.8672 3185.8038 0.0000 -176689.1128 20169.1348 87.8655 0.0000 30762.0310 -118447.4977 299.0901 -149209.5287 -118405.9606 298.1681 25.5324 80.6499 495975.2361 -9.2513 -9.0753
TCL: Setting parameter constraintScaling to 0
TCL: Running for 5000 steps
ETITLE: TS BOND ANGLE DIHED IMPRP ELECT VDW BOUNDARY MISC KINETIC TOTAL TEMP POTENTIAL TOTAL3 TEMPAVG PRESSURE GPRESSURE VOLUME PRESSAVG GPRESSAVG
ENERGY: 50000 1609.9127 2426.8672 3185.8038 0.0000 -176689.1128 20169.1348 0.0000 0.0000 30759.9716 -118537.4226 299.0701 -149297.3942 -118493.0588 299.0701 1.3516 52.3891 495975.2361 1.3516 52.3891
ENERGY: 51000 1583.1333 2412.2468 3252.0270 0.0000 -176269.3602 20263.1396 0.0000 0.0000 30737.5844 -118021.2290 298.8525 -148758.8134 -117980.5158 298.3807 137.3720 145.8259 497141.8094 5.3035 5.1175
ENERGY: 52000 1667.4456 2394.1139 3192.1018 0.0000 -176043.8560 20130.8217 0.0000 0.0000 30842.4631 -117816.9098 299.8722 -148659.3730 -117770.9497 299.3305 -83.2371 5.0536 495916.1847 5.2824 4.9204
ENERGY: 53000 1695.7341 2413.0732 3241.3214 0.0000 -175830.9645 19956.6353 0.0000 0.0000 31040.5766 -117483.6240 301.7984 -148524.2005 -117442.5013 300.3866 -41.7827 -23.5382 496134.6914 -1.5210 -1.2926
ENERGY: 54000 1646.2603 2421.3982 3200.7521 0.0000 -176257.5258 20093.0857 0.0000 0.0000 30921.7228 -117974.3067 300.6428 -148896.0295 -117919.7877 300.6176 -111.6552 -71.2243 496241.9976 -3.8573 -4.0780
ENERGY: 55000 1653.2021 2391.0408 3243.0553 0.0000 -175795.6036 19999.0166 0.0000 0.0000 30804.3382 -117704.9507 299.5015 -148509.2888 -117658.7755 300.0896 -3.7544 63.2624 495248.7332 5.3898 4.7205
