Info: SIMULATION PARAMETERS:
Info: TIMESTEP               1
Info: NUMBER OF STEPS        0
Info: STEPS PER CYCLE        10
Info: PERIODIC CELL BASIS 1  72.449 0 0
Info: PERIODIC CELL BASIS 2  0 93.247 0
Info: PERIODIC CELL BASIS 3  0 0 79.185
Info: PERIODIC CELL CENTER   -0.248 -0.156 -0.047
Info: WRAPPING WATERS AROUND PERIODIC BOUNDARIES ON OUTPUT.
Info: WRAPPING ALL CLUSTERS AROUND PERIODIC BOUNDARIES ON OUTPUT.
Info: FIRST LDB TIMESTEP     50
Info: LAST LDB TIMESTEP     -1
Info: HOM BACKGROUND SCALING 1
Info: PME BACKGROUND SCALING 1
Info: MIN ATOMS PER PATCH    40
Info: VELOCITY FILE          ../replicas/rep109/equilibration/eq1.vel
Info: CENTER OF MASS MOVING INITIALLY? NO
Info: DIELECTRIC             1
Info: EXCLUDE                SCALED ONE-FOUR
Info: 1-4 ELECTROSTATICS SCALED BY 0.833333
Info: MODIFIED 1-4 VDW PARAMETERS WILL BE USED
Info: DCD FILENAME           ../replicas/rep109/equilibration/eq2.dcd
Info: DCD FREQUENCY          5000
Info: DCD FIRST STEP         5000
Info: DCD FILE WILL CONTAIN UNIT CELL DATA
Info: XST FILENAME           ../replicas/rep109/equilibration/eq2.xst
Info: XST FREQUENCY          5000
Info: NO VELOCITY DCD OUTPUT
Info: NO FORCE DCD OUTPUT
Info: OUTPUT FILENAME        ../replicas/rep109/equilibration/eq2
Info: RESTART FILENAME       ../replicas/rep109/equilibration/eq2.restart
Info: RESTART FREQUENCY      5000
Info: BINARY RESTART FILES WILL BE USED
Info: SWITCHING ACTIVE
Info: SWITCHING ON           10
Info: SWITCHING OFF          12
Info: PAIRLIST DISTANCE      13.5
Info: PAIRLIST SHRINK RATE   0.01
Info: PAIRLIST GROW RATE     0.01
Info: PAIRLIST TRIGGER       0.3
Info: PAIRLISTS PER CYCLE    2
Info: PAIRLISTS ENABLED
Info: MARGIN                 0.48
Info: HYDROGEN GROUP CUTOFF  2.5
Info: PATCH DIMENSION        16.48
Info: ENERGY OUTPUT STEPS    500
Info: CROSSTERM ENERGY INCLUDED IN DIHEDRAL
Info: TIMING OUTPUT STEPS    5000
Info: PRESSURE OUTPUT STEPS  500
Info: HARMONIC CONSTRAINTS ACTIVE
Info: HARMONIC CONS EXP      2
Info: HARMONIC CONS SCALING  10
Info: LANGEVIN DYNAMICS ACTIVE
Info: LANGEVIN TEMPERATURE   300
Info: LANGEVIN USING BBK INTEGRATOR
Info: LANGEVIN DAMPING COEFFICIENT IS 5 INVERSE PS
Info: LANGEVIN DYNAMICS NOT APPLIED TO HYDROGENS
Info: BERENDSEN PRESSURE COUPLING ACTIVE
Info:     TARGET PRESSURE IS 1 BAR
Info:     COMPRESSIBILITY ESTIMATE IS 4.57e-05 BAR^(-1)
Info:     RELAXATION TIME IS 100 FS
Info:     APPLIED EVERY 2 STEPS
Info:     PRESSURE CONTROL IS GROUP-BASED
Info:       CELL FLUCTUATION IS ISOTROPIC
Info: PARTICLE MESH EWALD (PME) ACTIVE
Info: PME TOLERANCE               1e-06
Info: PME EWALD COEFFICIENT       0.257952
Info: PME INTERPOLATION ORDER     4
Info: PME GRID DIMENSIONS         80 96 80
Info: PME MAXIMUM GRID SPACING    1
Info: FULL ELECTROSTATIC EVALUATION FREQUENCY      2
Info: USING VERLET I (r-RESPA) MTS SCHEME.
Info: C1 SPLITTING OF LONG RANGE ELECTROSTATICS
Info: PLACING ATOMS IN PATCHES BY HYDROGEN GROUPS
Info: RIGID BONDS TO HYDROGEN : WATER
Info:         ERROR TOLERANCE : 1e-05
Info:          MAX ITERATIONS : 100
Info: RIGID WATER USING SETTLE ALGORITHM
Info: RANDOM NUMBER SEED     1503716255
Info: USE HYDROGEN BONDS?    NO
Info: Using AMBER format force field!
Info: AMBER PARM FILE        ../build/complex.top
Info: COORDINATE PDB         ../replicas/rep109/equilibration/eq1.coor
Info: Exclusions in PARM file will be ignored!
Info: SCNB (VDW SCALING)     2
Info: USING ARITHMETIC MEAN TO COMBINE L-J SIGMA PARAMETERS
Info: SUMMARY OF PARAMETERS:
Info: 71 BONDS
Info: 145 ANGLES
Info: 76 DIHEDRAL
Info: 0 IMPROPER
Info: 0 CROSSTERM
Info: 0 VDW
Info: 190 VDW_PAIRS
Info: 0 NBTHOLE_PAIRS
Info: STRUCTURE SUMMARY:
Info: 49394 ATOMS
Info: 49448 BONDS
Info: 8698 ANGLES
Info: 18780 DIHEDRALS
Info: 0 IMPROPERS
Info: 0 CROSSTERMS
Info: 0 EXCLUSIONS
Info: 2336 CONSTRAINTS
Info: 44667 RIGID BONDS
Info: 103515 DEGREES OF FREEDOM
Info: 17225 HYDROGEN GROUPS
Info: 4 ATOMS IN LARGEST HYDROGEN GROUP
Info: 17225 MIGRATION GROUPS
Info: 4 ATOMS IN LARGEST MIGRATION GROUP
Info: TOTAL MASS = 301478 amu
Info: TOTAL CHARGE = 1.00115e-05 e
Info: MASS DENSITY = 0.935846 g/cm^3
Info: ATOM DENSITY = 0.0923345 atoms/A^3
Info: ADDED 70656 IMPLICIT EXCLUSIONS
Info: NONBONDED TABLE R-SQUARED SPACING: 0.0625
Info: NONBONDED TABLE SIZE: 769 POINTS
Info: REMOVING COM VELOCITY 0.0225561 0.00173954 0.00168157
TCL: Running for 5000 steps
ETITLE: TS BOND ANGLE DIHED IMPRP ELECT VDW BOUNDARY MISC KINETIC TOTAL TEMP POTENTIAL TOTAL3 TEMPAVG PRESSURE GPRESSURE VOLUME PRESSAVG GPRESSAVG
ENERGY: 0 399.3821 1223.9191 2916.2852 0.0000 -212635.7913 29425.2949 0.0000 0.0000 10056.5027 -168614.4072 97.7764 -178670.9099 -168604.7978 97.7764 -2495.5823 -2597.9486 534946.2959 -2495.5823 -2597.9486
ENERGY: 1000 1190.9101 1938.8325 3101.5454 0.0000 -193149.8547 26333.9568 758.6919 0.0000 23935.8388 -135890.0792 232.7211 -159825.9180 -135857.0886 217.9376 2.8541 -5.0079 522542.9687 -13.3236 -13.9498
ENERGY: 2000 1445.2470 2137.6918 3127.6043 0.0000 -184068.2491 23464.3709 793.4127 0.0000 28032.7185 -125067.2040 272.5538 -153099.9224 -125031.1818 265.4051 -61.3879 -33.9724 516576.0942 -36.2607 -36.2717
ENERGY: 3000 1499.6518 2212.7114 3121.1292 0.0000 -179080.2584 21552.8352 794.0128 0.0000 29548.9369 -120350.9811 287.2956 -149899.9180 -120307.2864 284.4648 -4.1530 5.1632 511521.1360 -24.7258 -24.3818
ENERGY: 4000 1538.8279 2178.6497 3155.5723 0.0000 -177363.0986 20883.7410 795.6466 0.0000 30369.7091 -118440.9520 295.2757 -148810.6611 -118399.0911 291.9540 19.3567 -29.9788 507025.3038 -25.4925 -25.4736
ENERGY: 5000 1572.5728 2267.9381 3167.2872 0.0000 -175963.2371 20379.5359 792.1681 0.0000 30635.3536 -117148.3814 297.8585 -147783.7350 -117104.6085 297.2017 8.0802 20.9348 505413.5344 -2.9848 -2.6851
TCL: Setting parameter constraintScaling to 5.0
TCL: Running for 5000 steps
ETITLE: TS BOND ANGLE DIHED IMPRP ELECT VDW BOUNDARY MISC KINETIC TOTAL TEMP POTENTIAL TOTAL3 TEMPAVG PRESSURE GPRESSURE VOLUME PRESSAVG GPRESSAVG
ENERGY: 5000 1572.5728 2267.9381 3167.2872 0.0000 -175963.2371 20379.5359 396.0841 0.0000 30633.3098 -117546.5093 297.8386 -148179.8191 -117503.5932 297.8386 -35.7605 -23.2264 505413.5344 -35.7605 -23.2264
ENERGY: 6000 1610.0876 2271.1268 3172.7593 0.0000 -176280.4201 20642.0306 635.3333 0.0000 30722.9394 -117226.1430 298.7101 -147949.0824 -117185.0401 296.9663 -12.4152 17.1089 502619.2713 -20.8030 -20.2958
ENERGY: 7000 1658.9192 2288.8090 3135.6146 0.0000 -175687.1241 20159.9926 638.6915 0.0000 30851.1978 -116953.8995 299.9571 -147805.0973 -116913.9683 299.2154 -125.3878 -45.9977 502151.4120 -2.8977 -2.7686
ENERGY: 8000 1633.2750 2276.7816 3175.4025 0.0000 -175493.1703 20041.4685 645.6031 0.0000 30619.2693 -117101.3702 297.7021 -147720.6395 -117065.0795 298.4851 -36.0470 1.2196 501067.9524 -8.2824 -8.4483
ENERGY: 9000 1598.0321 2269.7179 3168.6559 0.0000 -175289.3798 19919.0229 644.3742 0.0000 30841.9372 -116847.6396 299.8670 -147689.5767 -116795.8924 300.1172 -2.9544 25.3320 500650.1780 0.2905 0.6550
ENERGY: 10000 1645.0621 2262.1768 3165.8625 0.0000 -175801.7356 20029.9822 679.4318 0.0000 30956.1095 -117063.1106 300.9771 -148019.2201 -117015.7511 298.6498 -85.3495 -14.6256 500677.1535 1.3505 1.7814
TCL: Setting parameter constraintScaling to 2.5
TCL: Running for 5000 steps
ETITLE: TS BOND ANGLE DIHED IMPRP ELECT VDW BOUNDARY MISC KINETIC TOTAL TEMP POTENTIAL TOTAL3 TEMPAVG PRESSURE GPRESSURE VOLUME PRESSAVG GPRESSAVG
ENERGY: 10000 1645.0621 2262.1768 3165.8625 0.0000 -175801.7356 20029.9822 339.7159 0.0000 30954.0666 -117404.8694 300.9573 -148358.9360 -117367.0616 300.9573 -147.8440 -80.1275 500677.1535 -147.8440 -80.1275
ENERGY: 11000 1657.9970 2258.8319 3203.3231 0.0000 -175775.7173 20413.6125 487.9415 0.0000 30608.4349 -117145.5764 297.5968 -147754.0113 -117100.1998 299.1794 -69.7897 7.6332 500639.2897 4.4808 3.9257
ENERGY: 12000 1643.7501 2315.2009 3174.6146 0.0000 -175638.7871 20158.1175 488.9266 0.0000 30973.2521 -116884.9252 301.1438 -147858.1773 -116844.1043 300.3305 25.1679 42.5275 498994.1678 -13.7559 -13.4381
ENERGY: 13000 1594.0549 2356.0789 3174.9258 0.0000 -175642.5184 20196.0971 535.3447 0.0000 30933.3310 -116852.6858 300.7556 -147786.0169 -116799.3217 300.7435 47.8360 30.6760 498986.7915 -11.9081 -12.3876
ENERGY: 14000 1678.3784 2305.3969 3175.4362 0.0000 -175989.5317 20105.2995 537.0012 0.0000 30820.3035 -117367.7160 299.6567 -148188.0195 -117321.2460 299.7606 -114.1925 -35.7251 497682.2553 -7.2696 -7.4815
ENERGY: 15000 1611.0236 2316.4305 3160.3206 0.0000 -176161.2988 20377.9668 503.4523 0.0000 30705.7300 -117486.3750 298.5427 -148192.1050 -117440.5163 299.1981 -81.3538 -49.5927 500689.1164 12.5026 12.6826
TCL: Setting parameter constraintScaling to 1.25
TCL: Running for 5000 steps
ETITLE: TS BOND ANGLE DIHED IMPRP ELECT VDW BOUNDARY MISC KINETIC TOTAL TEMP POTENTIAL TOTAL3 TEMPAVG PRESSURE GPRESSURE VOLUME PRESSAVG GPRESSAVG
ENERGY: 15000 1611.0236 2316.4305 3160.3206 0.0000 -176161.2988 20377.9668 251.7261 0.0000 30703.6837 -117740.1474 298.5229 -148443.8311 -117695.5225 298.5229 -123.9907 -95.1506 500689.1164 -123.9907 -95.1506
ENERGY: 16000 1665.3288 2383.9214 3158.4595 0.0000 -176187.4624 20333.8931 423.7088 0.0000 30794.2963 -117427.8546 299.4039 -148222.1508 -117377.1129 298.6041 -16.5461 -26.9995 498178.8672 -14.5992 -14.5467
ENERGY: 17000 1595.7260 2356.4104 3213.0041 0.0000 -175978.2751 20273.1739 408.2240 0.0000 30678.9664 -117452.7703 298.2825 -148131.7367 -117408.1874 299.0204 44.4028 31.5174 497419.9884 -11.2297 -10.9048
ENERGY: 18000 1627.2090 2429.8878 3192.5235 0.0000 -175876.8531 20237.2247 396.7684 0.0000 30632.0802 -117361.1597 297.8267 -147993.2399 -117316.9563 299.5703 -34.2518 11.5873 498005.8132 8.0160 8.3260
ENERGY: 19000 1667.8578 2433.0925 3190.6712 0.0000 -176269.0791 20341.9700 392.1239 0.0000 30599.4129 -117643.9508 297.5091 -148243.3637 -117587.6604 299.4912 -20.4129 -47.9909 497339.5168 -15.1344 -14.6435
ENERGY: 20000 1615.4253 2401.6773 3200.7646 0.0000 -175562.1008 19991.3863 400.6805 0.0000 30674.1668 -117277.9999 298.2359 -147952.1667 -117222.0414 299.1070 -34.8330 0.1758 498669.6639 15.3098 15.5553
TCL: Setting parameter constraintScaling to 0.625
TCL: Running for 5000 steps
ETITLE: TS BOND ANGLE DIHED IMPRP ELECT VDW BOUNDARY MISC KINETIC TOTAL TEMP POTENTIAL TOTAL3 TEMPAVG PRESSURE GPRESSURE VOLUME PRESSAVG GPRESSAVG
ENERGY: 20000 1615.4253 2401.6773 3200.7646 0.0000 -175562.1008 19991.3863 200.3403 0.0000 30672.1081 -117480.3988 298.2159 -148152.5070 -117435.8279 298.2159 -35.8749 -9.1433 498669.6639 -35.8749 -9.1433
ENERGY: 21000 1629.9341 2372.5304 3193.1250 0.0000 -176005.9789 20242.3697 299.7345 0.0000 30948.1511 -117320.1342 300.8997 -148268.2853 -117276.2806 299.1615 -44.4073 38.8011 497012.8762 -1.0475 -1.1425
ENERGY: 22000 1664.6409 2521.2874 3219.3247 0.0000 -176078.3594 20114.2091 320.0486 0.0000 30930.1873 -117308.6614 300.7251 -148238.8487 -117256.6938 300.0038 58.5190 82.3875 496829.0064 -7.6767 -6.6010
ENERGY: 23000 1621.5147 2346.2418 3202.8016 0.0000 -176067.1239 20209.3338 321.5040 0.0000 30723.1939 -117642.5342 298.7125 -148365.7281 -117598.1247 298.8276 -8.2002 -39.7210 498317.3248 17.2783 17.0259
ENERGY: 24000 1621.5653 2412.9535 3171.3382 0.0000 -175836.3236 19958.9441 327.3528 0.0000 30736.0990 -117608.0707 298.8380 -148344.1698 -117566.0690 298.0371 -16.3109 -19.7560 497737.0732 6.6873 6.8148
ENERGY: 25000 1583.7439 2370.6274 3212.7146 0.0000 -176652.0785 20390.6999 326.9654 0.0000 30940.9278 -117826.3995 300.8295 -148767.3273 -117770.3487 298.7884 10.4057 51.9616 498752.3360 8.3481 8.3313
TCL: Setting parameter constraintScaling to 0.3125
TCL: Running for 5000 steps
ETITLE: TS BOND ANGLE DIHED IMPRP ELECT VDW BOUNDARY MISC KINETIC TOTAL TEMP POTENTIAL TOTAL3 TEMPAVG PRESSURE GPRESSURE VOLUME PRESSAVG GPRESSAVG
ENERGY: 25000 1583.7439 2370.6274 3212.7146 0.0000 -176652.0785 20390.6999 163.4827 0.0000 30938.8960 -117991.9140 300.8098 -148930.8100 -117946.3603 300.8098 -3.9995 37.0282 498752.3360 -3.9995 37.0282
ENERGY: 26000 1596.8219 2436.8118 3225.8295 0.0000 -175597.2266 19953.3594 247.3350 0.0000 30747.5851 -117389.4839 298.9497 -148137.0689 -117336.8764 298.8559 24.7707 -15.1667 498547.4950 2.1283 1.9170
ENERGY: 27000 1677.4341 2408.5512 3207.9697 0.0000 -176059.0833 20233.3729 244.7253 0.0000 30659.6001 -117627.4299 298.0942 -148287.0300 -117588.5238 298.8707 77.1703 88.9670 498327.2932 6.2964 6.1621
ENERGY: 28000 1643.8580 2384.3224 3193.1261 0.0000 -175143.2032 19611.8707 252.7058 0.0000 30696.7143 -117360.6059 298.4551 -148057.3202 -117316.0621 300.1368 -36.8848 -62.0044 497387.6002 0.9152 0.2403
ENERGY: 29000 1631.4477 2391.5270 3162.8477 0.0000 -175610.4209 19975.9384 262.7633 0.0000 30807.3651 -117378.5317 299.5309 -148185.8969 -117340.2646 299.6913 -75.0863 -44.5021 497745.8781 7.3540 7.3366
ENERGY: 30000 1661.5457 2371.8653 3202.0809 0.0000 -175564.4261 20095.9227 256.0357 0.0000 30859.1113 -117117.8644 300.0340 -147976.9757 -117069.1770 300.0336 -26.1548 6.9012 498551.3427 6.4371 5.8516
TCL: Setting parameter constraintScaling to 0.15625
TCL: Running for 5000 steps
ETITLE: TS BOND ANGLE DIHED IMPRP ELECT VDW BOUNDARY MISC KINETIC TOTAL TEMP POTENTIAL TOTAL3 TEMPAVG PRESSURE GPRESSURE VOLUME PRESSAVG GPRESSAVG
ENERGY: 30000 1661.5457 2371.8653 3202.0809 0.0000 -175564.4261 20095.9227 128.0178 0.0000 30857.0428 -117247.9508 300.0139 -148104.9936 -117205.4435 300.0139 -23.4957 14.6586 498551.3427 -23.4957 14.6586
ENERGY: 31000 1628.9762 2388.4725 3227.5260 0.0000 -175829.4590 19997.7569 192.3204 0.0000 30835.3855 -117559.0216 299.8033 -148394.4071 -117518.2487 300.0411 -174.6662 -91.1717 497604.3073 3.7165 4.3027
ENERGY: 32000 1573.4229 2451.8107 3215.1795 0.0000 -175942.8679 20240.0098 187.3954 0.0000 30751.0489 -117524.0008 298.9834 -148275.0497 -117469.7962 299.0090 -105.2432 13.1651 497551.7794 5.9502 5.7505
ENERGY: 33000 1631.1907 2407.6192 3239.2860 0.0000 -176013.1513 20087.2643 206.6644 0.0000 30866.3183 -117574.8085 300.1041 -148441.1268 -117538.2586 299.3976 -105.9342 0.6531 495817.0236 -4.9595 -4.8060
ENERGY: 34000 1631.8989 2465.0404 3188.8216 0.0000 -175933.5307 20168.1538 212.9798 0.0000 30886.0899 -117380.5462 300.2963 -148266.6361 -117326.7029 300.1034 98.3118 59.0428 496602.6767 9.8986 9.6340
ENERGY: 35000 1644.4666 2374.6819 3202.2535 0.0000 -176052.5361 20281.1048 206.9043 0.0000 30964.7525 -117378.3726 301.0611 -148343.1251 -117326.4219 300.4102 -111.4590 -36.3699 497164.9565 8.2358 8.0805
TCL: Setting parameter constraintScaling to 0.078125
TCL: Running for 5000 steps
ETITLE: TS BOND ANGLE DIHED IMPRP ELECT VDW BOUNDARY MISC KINETIC TOTAL TEMP POTENTIAL TOTAL3 TEMPAVG PRESSURE GPRESSURE VOLUME PRESSAVG GPRESSAVG
ENERGY: 35000 1644.4666 2374.6819 3202.2535 0.0000 -176052.5361 20281.1048 103.4522 0.0000 30962.7169 -117483.8604 301.0414 -148446.5772 -117443.3775 301.0414 -63.5121 7.7872 497164.9565 -63.5121 7.7872
ENERGY: 36000 1665.3663 2418.7911 3200.9849 0.0000 -175707.7225 19971.1857 150.5837 0.0000 30867.9500 -117432.8606 300.1200 -148300.8107 -117400.4488 299.7175 -70.5150 -43.7605 496973.6570 2.4875 3.1749
ENERGY: 37000 1640.2548 2417.3237 3245.6965 0.0000 -175974.7185 20067.1536 163.9672 0.0000 30744.2024 -117696.1203 298.9168 -148440.3227 -117647.4538 299.1265 -0.6250 -86.0774 495719.8251 1.7973 1.5065
ENERGY: 38000 1621.1701 2371.1344 3226.5042 0.0000 -176086.8287 20245.6551 158.1442 0.0000 30863.2009 -117601.0199 300.0738 -148464.2207 -117569.2643 299.3320 -1.3285 21.6665 498171.0778 9.8400 9.5756
ENERGY: 39000 1650.2578 2362.5352 3234.7480 0.0000 -175668.7301 19951.9677 162.6497 0.0000 30842.1561 -117464.4155 299.8692 -148306.5716 -117412.9380 300.1580 -162.8587 -49.1599 497059.4684 0.5507 0.4501
ENERGY: 40000 1619.2656 2405.0231 3212.9925 0.0000 -175635.8696 20003.5607 169.2140 0.0000 30672.5287 -117553.2851 298.2199 -148225.8138 -117493.6579 299.7542 71.2610 93.9118 496388.1250 -5.5241 -5.2604
TCL: Setting parameter constraintScaling to 0.0390625
TCL: Running for 5000 steps
ETITLE: TS BOND ANGLE DIHED IMPRP ELECT VDW BOUNDARY MISC KINETIC TOTAL TEMP POTENTIAL TOTAL3 TEMPAVG PRESSURE GPRESSURE VOLUME PRESSAVG GPRESSAVG
ENERGY: 40000 1619.2656 2405.0231 3212.9925 0.0000 -175635.8696 20003.5607 84.6070 0.0000 30670.4940 -117639.9268 298.2002 -148310.4208 -117597.4385 298.2002 65.2125 93.5267 496388.1250 65.2125 93.5267
ENERGY: 41000 1624.4788 2347.8815 3235.0020 0.0000 -175422.9360 19637.2358 107.0290 0.0000 30677.8912 -117793.4177 298.2721 -148471.3090 -117751.7571 298.3413 -160.1244 -61.0221 496843.9280 2.9721 3.5426
ENERGY: 42000 1645.4870 2374.0666 3203.0618 0.0000 -175865.0724 20049.8367 114.5622 0.0000 30779.0003 -117699.0579 299.2551 -148478.0582 -117657.1018 299.3756 -26.2368 -17.5590 497531.1308 10.3758 10.3931
ENERGY: 43000 1670.7792 2395.8353 3244.1004 0.0000 -175302.7040 19859.9767 127.7210 0.0000 30882.9601 -117121.3313 300.2659 -148004.2914 -117077.7126 300.9570 -7.3668 41.2882 495982.2839 -2.7260 -2.8772
ENERGY: 44000 1619.7742 2433.1587 3179.7152 0.0000 -175877.9211 19988.4105 119.4845 0.0000 31028.1060 -117509.2721 301.6771 -148537.3780 -117460.2445 300.2056 -99.2712 -11.2810 495465.7165 -2.1650 -2.4787
ENERGY: 45000 1656.3242 2365.1374 3173.1139 0.0000 -175944.8511 19991.9490 123.2107 0.0000 30687.7008 -117947.4151 298.3675 -148635.1159 -117916.3913 299.1062 25.1273 3.1997 496961.9283 1.5282 2.3117
TCL: Setting parameter constraintScaling to 0.01953125
TCL: Running for 5000 steps
ETITLE: TS BOND ANGLE DIHED IMPRP ELECT VDW BOUNDARY MISC KINETIC TOTAL TEMP POTENTIAL TOTAL3 TEMPAVG PRESSURE GPRESSURE VOLUME PRESSAVG GPRESSAVG
ENERGY: 45000 1656.3242 2365.1374 3173.1139 0.0000 -175944.8511 19991.9490 61.6053 0.0000 30685.6319 -118011.0893 298.3473 -148696.7212 -117969.0753 298.3473 11.0969 -6.6204 496961.9283 11.0969 -6.6204
ENERGY: 46000 1648.5492 2371.8327 3207.9982 0.0000 -175752.2903 19895.8478 82.3934 0.0000 30588.6507 -117957.0183 297.4044 -148545.6690 -117902.6405 298.7979 -70.3811 -19.4506 496243.5485 1.4930 1.0138
ENERGY: 47000 1587.9355 2362.8577 3237.0066 0.0000 -175667.0590 19871.6761 87.3664 0.0000 30815.5591 -117704.6576 299.6106 -148520.2166 -117661.4360 299.1593 -75.0967 -36.6651 496172.4209 -3.9150 -3.5471
ENERGY: 48000 1659.8809 2372.8308 3206.8257 0.0000 -176192.6772 20191.6412 93.9179 0.0000 30866.0711 -117801.5097 300.1017 -148667.5807 -117753.8498 299.9944 -143.1708 -36.5011 497267.8507 5.0605 5.4367
ENERGY: 49000 1705.8312 2396.8896 3202.1453 0.0000 -175953.3931 19976.7271 97.6809 0.0000 30802.6701 -117771.4489 299.4853 -148574.1190 -117721.9310 299.8153 -65.5621 43.2034 496739.5704 4.6038 4.2438
ENERGY: 50000 1684.8138 2468.8503 3193.9839 0.0000 -176512.7724 20238.4197 94.6199 0.0000 30826.2919 -118005.7928 299.7149 -148832.0847 -117958.5864 298.7497 12.9668 102.3460 496844.2271 1.3287 1.3973
TCL: Setting parameter constraintScaling to 0
TCL: Running for 5000 steps
ETITLE: TS BOND ANGLE DIHED IMPRP ELECT VDW BOUNDARY MISC KINETIC TOTAL TEMP POTENTIAL TOTAL3 TEMPAVG PRESSURE GPRESSURE VOLUME PRESSAVG GPRESSAVG
ENERGY: 50000 1684.8138 2468.8503 3193.9839 0.0000 -176512.7724 20238.4197 0.0000 0.0000 30824.2653 -118102.4393 299.6952 -148926.7046 -118064.0680 299.6952 -0.5831 87.3997 496844.2271 -0.5831 87.3997
ENERGY: 51000 1702.7610 2377.9676 3244.8645 0.0000 -176271.6952 20144.2217 0.0000 0.0000 30657.6503 -118144.2300 298.0753 -148801.8804 -118101.1223 299.0632 47.4119 78.5946 496183.2049 9.8859 9.8247
ENERGY: 52000 1628.0750 2407.2989 3238.2783 0.0000 -176532.8086 20405.3255 0.0000 0.0000 30983.9501 -117869.8806 301.2478 -148853.8308 -117816.8495 299.8410 -42.4456 -11.1061 497618.2375 4.2648 4.3274
ENERGY: 53000 1661.8961 2424.8953 3205.3506 0.0000 -175846.0926 20039.4442 0.0000 0.0000 30779.8711 -117734.6354 299.2636 -148514.5065 -117698.0161 299.5424 36.9314 55.7817 496668.4554 -0.0309 0.0722
ENERGY: 54000 1632.6961 2392.0073 3202.4993 0.0000 -175803.1478 20060.6583 0.0000 0.0000 30927.0728 -117588.2139 300.6948 -148515.2868 -117531.6655 300.2504 -84.3312 -39.4448 496686.5163 3.1761 2.9056
ENERGY: 55000 1597.7148 2367.8902 3187.3397 0.0000 -176278.4938 20159.4742 0.0000 0.0000 30957.5059 -118008.5689 300.9907 -148966.0749 -117957.0627 299.8680 -23.8033 0.3540 495116.2853 -2.1004 -1.6857
