Info: SIMULATION PARAMETERS:
Info: TIMESTEP               2
Info: NUMBER OF STEPS        0
Info: STEPS PER CYCLE        10
Info: PERIODIC CELL BASIS 1  72.449 0 0
Info: PERIODIC CELL BASIS 2  0 93.247 0
Info: PERIODIC CELL BASIS 3  0 0 79.185
Info: PERIODIC CELL CENTER   -0.248 -0.156 -0.047
Info: WRAPPING WATERS AROUND PERIODIC BOUNDARIES ON OUTPUT.
Info: WRAPPING ALL CLUSTERS AROUND PERIODIC BOUNDARIES ON OUTPUT.
Info: FIRST LDB TIMESTEP     50
Info: LAST LDB TIMESTEP     -1
Info: HOM BACKGROUND SCALING 1
Info: PME BACKGROUND SCALING 1
Info: MIN ATOMS PER PATCH    40
Info: INITIAL TEMPERATURE    0
Info: CENTER OF MASS MOVING INITIALLY? NO
Info: DIELECTRIC             1
Info: EXCLUDE                SCALED ONE-FOUR
Info: 1-4 ELECTROSTATICS SCALED BY 0.833333
Info: MODIFIED 1-4 VDW PARAMETERS WILL BE USED
Info: NO DCD TRAJECTORY OUTPUT
Info: NO EXTENDED SYSTEM TRAJECTORY OUTPUT
Info: NO VELOCITY DCD OUTPUT
Info: NO FORCE DCD OUTPUT
Info: OUTPUT FILENAME        ../replicas/rep74/equilibration/eq0
Info: NO RESTART FILE
Info: SWITCHING ACTIVE
Info: SWITCHING ON           10
Info: SWITCHING OFF          12
Info: PAIRLIST DISTANCE      13.5
Info: PAIRLIST SHRINK RATE   0.01
Info: PAIRLIST GROW RATE     0.01
Info: PAIRLIST TRIGGER       0.3
Info: PAIRLISTS PER CYCLE    2
Info: PAIRLISTS ENABLED
Info: MARGIN                 0
Info: HYDROGEN GROUP CUTOFF  2.5
Info: PATCH DIMENSION        16
Info: ENERGY OUTPUT STEPS    500
Info: CROSSTERM ENERGY INCLUDED IN DIHEDRAL
Info: TIMING OUTPUT STEPS    5000
Info: PRESSURE OUTPUT STEPS  500
Info: HARMONIC CONSTRAINTS ACTIVE
Info: HARMONIC CONS EXP      2
Info: HARMONIC CONS SCALING  10
Info: CONJUGATE GRADIENT MINIMIZATION ACTIVE
Info: LINE MINIMIZATION GOAL = 0.001
Info: BABY STEP SIZE = 0.01
Info: TINY STEP SIZE = 1e-06
Info: PARTICLE MESH EWALD (PME) ACTIVE
Info: PME TOLERANCE               1e-06
Info: PME EWALD COEFFICIENT       0.257952
Info: PME INTERPOLATION ORDER     4
Info: PME GRID DIMENSIONS         80 96 80
Info: PME MAXIMUM GRID SPACING    1
Info: FULL ELECTROSTATIC EVALUATION FREQUENCY      2
Info: USING VERLET I (r-RESPA) MTS SCHEME.
Info: C1 SPLITTING OF LONG RANGE ELECTROSTATICS
Info: PLACING ATOMS IN PATCHES BY HYDROGEN GROUPS
Info: RIGID BONDS TO HYDROGEN : ALL
Info:         ERROR TOLERANCE : 1e-05
Info:          MAX ITERATIONS : 100
Info: RIGID WATER USING SETTLE ALGORITHM
Info: RANDOM NUMBER SEED     1503692774
Info: USE HYDROGEN BONDS?    NO
Info: Using AMBER format force field!
Info: AMBER PARM FILE        ../build/complex.top
Info: COORDINATE PDB         ../build/complex.pdb
Info: Exclusions in PARM file will be ignored!
Info: SCNB (VDW SCALING)     2
Info: USING ARITHMETIC MEAN TO COMBINE L-J SIGMA PARAMETERS
Info: SUMMARY OF PARAMETERS:
Info: 71 BONDS
Info: 145 ANGLES
Info: 76 DIHEDRAL
Info: 0 IMPROPER
Info: 0 CROSSTERM
Info: 0 VDW
Info: 190 VDW_PAIRS
Info: 0 NBTHOLE_PAIRS
Info: STRUCTURE SUMMARY:
Info: 49394 ATOMS
Info: 49448 BONDS
Info: 8698 ANGLES
Info: 18780 DIHEDRALS
Info: 0 IMPROPERS
Info: 0 CROSSTERMS
Info: 0 EXCLUSIONS
Info: 2336 CONSTRAINTS
Info: 47058 RIGID BONDS
Info: 101124 DEGREES OF FREEDOM
Info: 17225 HYDROGEN GROUPS
Info: 4 ATOMS IN LARGEST HYDROGEN GROUP
Info: 17225 MIGRATION GROUPS
Info: 4 ATOMS IN LARGEST MIGRATION GROUP
Info: TOTAL MASS = 301478 amu
Info: TOTAL CHARGE = 1.00115e-05 e
Info: MASS DENSITY = 0.935846 g/cm^3
Info: ATOM DENSITY = 0.0923345 atoms/A^3
Info: ADDED 70656 IMPLICIT EXCLUSIONS
Info: NONBONDED TABLE R-SQUARED SPACING: 0.0625
Info: NONBONDED TABLE SIZE: 769 POINTS
Info: REMOVING COM VELOCITY 0 0 0
TCL: Minimizing for 100 steps
ETITLE: TS BOND ANGLE DIHED IMPRP ELECT VDW BOUNDARY MISC KINETIC TOTAL TEMP POTENTIAL TOTAL3 TEMPAVG PRESSURE GPRESSURE VOLUME PRESSAVG GPRESSAVG
ENERGY: 0 155.4176 1012.2698 2855.7272 0.0000 -154496.7911 207729.2052 0.0468 0.0000 0.0000 57255.8755 0.0000 57255.8755 57255.8755 0.0000 116350.2532 86546.1670 534946.2959 116350.2532 86546.1670
ENERGY: 20 304.7536 935.7910 2893.4663 0.0000 -158672.9393 17936.6600 143.9453 0.0000 0.0000 -136458.3231 0.0000 -136458.3231 -136458.3231 0.0000 16523.9394 -239.4551 534946.2959 16523.9394 -239.4551
ENERGY: 40 198.7420 799.5724 2896.9273 0.0000 -162811.4543 16417.9533 221.3029 0.0000 0.0000 -142276.9564 0.0000 -142276.9564 -142276.9564 0.0000 15011.2700 -2135.4702 534946.2959 15011.2700 -2135.4702
ENERGY: 60 130.5285 715.3440 2898.2165 0.0000 -167496.1557 15446.7541 315.2796 0.0000 0.0000 -147990.0329 0.0000 -147990.0329 -147990.0329 0.0000 13793.8840 -3799.3982 534946.2959 13793.8840 -3799.3982
ENERGY: 80 431.2757 765.6313 2904.3783 0.0000 -169937.5195 15121.1535 372.0120 0.0000 0.0000 -150343.0688 0.0000 -150343.0688 -150343.0688 0.0000 13270.3333 -4577.2420 534946.2959 13270.3333 -4577.2420
ENERGY: 100 119.3895 710.0604 2905.2588 0.0000 -171259.7183 14991.7863 387.3613 0.0000 0.0000 -152145.8620 0.0000 -152145.8620 -152145.8620 0.0000 13056.2644 -4908.1746 534946.2959 13056.2644 -4908.1746
TCL: Setting parameter constraintScaling to 5.0
TCL: Minimizing for 100 steps
ETITLE: TS BOND ANGLE DIHED IMPRP ELECT VDW BOUNDARY MISC KINETIC TOTAL TEMP POTENTIAL TOTAL3 TEMPAVG PRESSURE GPRESSURE VOLUME PRESSAVG GPRESSAVG
ENERGY: 100 119.3895 710.0604 2905.2588 0.0000 -171259.7183 14991.7863 193.6806 0.0000 0.0000 -152339.5427 0.0000 -152339.5427 -152339.5427 0.0000 13672.7705 -23021.8204 534946.2959 13672.7705 -23021.8204
ENERGY: 120 166.4464 692.2073 2910.8260 0.0000 -172914.7691 14833.3499 281.9271 0.0000 0.0000 -154030.0123 0.0000 -154030.0123 -154030.0123 0.0000 13225.2911 -4913.0018 534946.2959 13225.2911 -4913.0018
ENERGY: 140 225.1120 696.9080 2912.9605 0.0000 -174149.4380 14732.6747 321.1826 0.0000 0.0000 -155260.6002 0.0000 -155260.6002 -155260.6002 0.0000 12997.6415 -5265.6345 534946.2959 12997.6415 -5265.6345
ENERGY: 160 270.1850 684.1339 2923.2865 0.0000 -176284.2687 14758.0882 383.2462 0.0000 0.0000 -157265.3289 0.0000 -157265.3289 -157265.3289 0.0000 12739.5814 -5736.5546 534946.2959 12739.5814 -5736.5546
ENERGY: 180 172.7254 724.9572 2929.2189 0.0000 -179192.4429 15054.1399 478.3262 0.0000 0.0000 -159833.0753 0.0000 -159833.0753 -159833.0753 0.0000 12525.3965 -6224.7251 534946.2959 12525.3965 -6224.7251
ENERGY: 200 239.6465 694.1114 2941.3982 0.0000 -181558.0236 15587.4160 546.3260 0.0000 0.0000 -161549.1256 0.0000 -161549.1256 -161549.1256 0.0000 12582.6730 -6422.5465 534946.2959 12582.6730 -6422.5465
TCL: Setting parameter constraintScaling to 2.5
TCL: Minimizing for 100 steps
ETITLE: TS BOND ANGLE DIHED IMPRP ELECT VDW BOUNDARY MISC KINETIC TOTAL TEMP POTENTIAL TOTAL3 TEMPAVG PRESSURE GPRESSURE VOLUME PRESSAVG GPRESSAVG
ENERGY: 200 239.6465 694.1114 2941.3982 0.0000 -181558.0237 15587.4160 273.1630 0.0000 0.0000 -161822.2885 0.0000 -161822.2885 -161822.2885 0.0000 13229.6526 -25653.6558 534946.2959 13229.6526 -25653.6558
ENERGY: 220 245.2681 676.1611 2932.9765 0.0000 -182071.9895 15473.3312 336.7386 0.0000 0.0000 -162407.5142 0.0000 -162407.5142 -162407.5142 0.0000 12975.0629 -6084.1048 534946.2959 12975.0629 -6084.1048
ENERGY: 240 153.7645 693.9303 2928.7641 0.0000 -182681.1276 15530.0690 346.9582 0.0000 0.0000 -163027.6416 0.0000 -163027.6416 -163027.6416 0.0000 13034.0045 -6128.9098 534946.2959 13034.0045 -6128.9098
ENERGY: 260 144.7625 676.8465 2920.6304 0.0000 -184117.4740 15840.5984 392.6212 0.0000 0.0000 -164142.0150 0.0000 -164142.0150 -164142.0150 0.0000 13043.3793 -6257.6271 534946.2959 13043.3793 -6257.6271
ENERGY: 280 171.5096 700.9617 2917.5081 0.0000 -185420.3439 16226.3654 455.8436 0.0000 0.0000 -164948.1556 0.0000 -164948.1556 -164948.1556 0.0000 13139.8277 -6339.2229 534946.2959 13139.8277 -6339.2229
ENERGY: 300 126.7450 639.5625 2916.1939 0.0000 -186086.3798 16441.7649 481.6986 0.0000 0.0000 -165480.4149 0.0000 -165480.4149 -165480.4149 0.0000 13205.2021 -6342.0885 534946.2959 13205.2021 -6342.0885
TCL: Setting parameter constraintScaling to 1.25
TCL: Minimizing for 100 steps
ETITLE: TS BOND ANGLE DIHED IMPRP ELECT VDW BOUNDARY MISC KINETIC TOTAL TEMP POTENTIAL TOTAL3 TEMPAVG PRESSURE GPRESSURE VOLUME PRESSAVG GPRESSAVG
ENERGY: 300 126.7450 639.5625 2916.1939 0.0000 -186086.3798 16441.7649 240.8493 0.0000 0.0000 -165721.2642 0.0000 -165721.2642 -165721.2642 0.0000 13653.6546 -26351.0875 534946.2959 13653.6546 -26351.0875
ENERGY: 320 148.5406 635.6645 2911.2683 0.0000 -186780.9090 16610.1160 282.3470 0.0000 0.0000 -166192.9725 0.0000 -166192.9725 -166192.9725 0.0000 13613.0480 -5996.4254 534946.2959 13613.0480 -5996.4254
ENERGY: 340 137.2080 624.6718 2909.3455 0.0000 -187208.8374 16758.4363 287.9898 0.0000 0.0000 -166491.1860 0.0000 -166491.1860 -166491.1860 0.0000 13694.0646 -5969.4989 534946.2959 13694.0646 -5969.4989
ENERGY: 360 177.7081 663.2358 2907.3841 0.0000 -188598.6738 17227.1072 339.6587 0.0000 0.0000 -167283.5800 0.0000 -167283.5800 -167283.5800 0.0000 13847.0993 -5993.1634 534946.2959 13847.0993 -5993.1634
ENERGY: 380 488.4441 690.8116 2904.0754 0.0000 -190670.6405 18052.0879 412.3109 0.0000 0.0000 -168122.9106 0.0000 -168122.9106 -168122.9106 0.0000 14021.7887 -6003.6842 534946.2959 14021.7887 -6003.6842
ENERGY: 400 140.0812 652.6156 2901.9489 0.0000 -190534.0925 17943.1539 396.5425 0.0000 0.0000 -168499.7504 0.0000 -168499.7504 -168499.7504 0.0000 14132.9124 -5927.5067 534946.2959 14132.9124 -5927.5067
TCL: Setting parameter constraintScaling to 0.625
TCL: Minimizing for 100 steps
ETITLE: TS BOND ANGLE DIHED IMPRP ELECT VDW BOUNDARY MISC KINETIC TOTAL TEMP POTENTIAL TOTAL3 TEMPAVG PRESSURE GPRESSURE VOLUME PRESSAVG GPRESSAVG
ENERGY: 400 140.0812 652.6156 2901.9489 0.0000 -190534.0925 17943.1539 198.2713 0.0000 0.0000 -168698.0216 0.0000 -168698.0216 -168698.0216 0.0000 14431.8674 -26611.0099 534946.2959 14431.8674 -26611.0099
ENERGY: 420 159.8752 636.2442 2899.6597 0.0000 -190755.4666 17999.7535 209.7672 0.0000 0.0000 -168850.1667 0.0000 -168850.1667 -168850.1667 0.0000 14320.1727 -5719.4160 534946.2959 14320.1727 -5719.4160
ENERGY: 440 181.1675 647.1230 2892.3501 0.0000 -191475.9530 18203.6311 241.7301 0.0000 0.0000 -169309.9512 0.0000 -169309.9512 -169309.9512 0.0000 14375.1389 -5758.1550 534946.2959 14375.1389 -5758.1550
ENERGY: 460 165.9213 641.5792 2886.7537 0.0000 -192080.9725 18412.8118 259.7578 0.0000 0.0000 -169714.1487 0.0000 -169714.1487 -169714.1487 0.0000 14470.8374 -5738.8267 534946.2959 14470.8374 -5738.8267
ENERGY: 480 296.1270 670.5850 2891.2826 0.0000 -193516.7581 18975.4656 297.0777 0.0000 0.0000 -170386.2203 0.0000 -170386.2203 -170386.2203 0.0000 14666.9602 -5691.7770 534946.2959 14666.9602 -5691.7770
ENERGY: 500 145.5934 638.7129 2878.8418 0.0000 -194387.7365 19351.0440 316.1369 0.0000 0.0000 -171057.4075 0.0000 -171057.4075 -171057.4075 0.0000 14900.5958 -5568.5781 534946.2959 14900.5958 -5568.5781
TCL: Setting parameter constraintScaling to 0.3125
TCL: Minimizing for 100 steps
ETITLE: TS BOND ANGLE DIHED IMPRP ELECT VDW BOUNDARY MISC KINETIC TOTAL TEMP POTENTIAL TOTAL3 TEMPAVG PRESSURE GPRESSURE VOLUME PRESSAVG GPRESSAVG
ENERGY: 500 145.5934 638.7129 2878.8418 0.0000 -194387.7365 19351.0440 158.0684 0.0000 0.0000 -171215.4759 0.0000 -171215.4759 -171215.4759 0.0000 15100.4428 -26848.4297 534946.2959 15100.4428 -26848.4297
ENERGY: 520 152.8866 652.4855 2874.8967 0.0000 -194894.1805 19505.9193 177.1516 0.0000 0.0000 -171530.8409 0.0000 -171530.8409 -171530.8409 0.0000 15135.3510 -5397.3181 534946.2959 15135.3510 -5397.3181
ENERGY: 540 161.4726 644.9610 2874.5539 0.0000 -195596.5176 19762.0356 190.0402 0.0000 0.0000 -171963.4544 0.0000 -171963.4544 -171963.4544 0.0000 15181.6385 -5395.7834 534946.2959 15181.6385 -5395.7834
ENERGY: 560 158.7777 650.2655 2869.8478 0.0000 -196647.1901 20155.9994 216.5268 0.0000 0.0000 -172595.7728 0.0000 -172595.7728 -172595.7728 0.0000 15342.8676 -5362.3232 534946.2959 15342.8676 -5362.3232
ENERGY: 580 447.1324 733.3696 2872.9133 0.0000 -197182.5438 20375.0777 218.2907 0.0000 0.0000 -172535.7601 0.0000 -172535.7601 -172535.7601 0.0000 15371.1230 -5380.0819 534946.2959 15371.1230 -5380.0819
ENERGY: 600 181.0612 659.1461 2859.9432 0.0000 -197808.8494 20601.9735 229.7901 0.0000 0.0000 -173276.9352 0.0000 -173276.9352 -173276.9352 0.0000 15643.7499 -5228.2000 534946.2959 15643.7499 -5228.2000
TCL: Setting parameter constraintScaling to 0.15625
TCL: Minimizing for 100 steps
ETITLE: TS BOND ANGLE DIHED IMPRP ELECT VDW BOUNDARY MISC KINETIC TOTAL TEMP POTENTIAL TOTAL3 TEMPAVG PRESSURE GPRESSURE VOLUME PRESSAVG GPRESSAVG
ENERGY: 600 181.0612 659.1461 2859.9432 0.0000 -197808.8494 20601.9735 114.8950 0.0000 0.0000 -173391.8302 0.0000 -173391.8302 -173391.8302 0.0000 15768.3249 -26987.8870 534946.2959 15768.3249 -26987.8870
ENERGY: 620 240.5855 677.5724 2857.9685 0.0000 -198043.5798 20679.7125 120.8134 0.0000 0.0000 -173466.9275 0.0000 -173466.9275 -173466.9275 0.0000 15761.7314 -5129.9874 534946.2959 15761.7314 -5129.9874
ENERGY: 640 171.9092 663.2566 2856.1067 0.0000 -198420.6185 20814.0408 126.8911 0.0000 0.0000 -173788.4141 0.0000 -173788.4141 -173788.4141 0.0000 15779.1686 -5142.7326 534946.2959 15779.1686 -5142.7326
ENERGY: 660 167.2256 692.3563 2853.0602 0.0000 -198930.0437 20995.8113 135.2671 0.0000 0.0000 -174086.3232 0.0000 -174086.3232 -174086.3232 0.0000 15955.4913 -5066.0386 534946.2959 15955.4913 -5066.0386
ENERGY: 680 186.7617 655.5189 2853.3430 0.0000 -199536.7139 21228.7219 143.9280 0.0000 0.0000 -174468.4404 0.0000 -174468.4404 -174468.4404 0.0000 15913.2402 -5120.5106 534946.2959 15913.2402 -5120.5106
ENERGY: 700 181.4831 650.2886 2845.6821 0.0000 -200397.9522 21574.3174 153.5547 0.0000 0.0000 -174992.6263 0.0000 -174992.6263 -174992.6263 0.0000 16165.6216 -4997.1966 534946.2959 16165.6216 -4997.1966
TCL: Setting parameter constraintScaling to 0.078125
TCL: Minimizing for 100 steps
ETITLE: TS BOND ANGLE DIHED IMPRP ELECT VDW BOUNDARY MISC KINETIC TOTAL TEMP POTENTIAL TOTAL3 TEMPAVG PRESSURE GPRESSURE VOLUME PRESSAVG GPRESSAVG
ENERGY: 700 181.4831 650.2886 2845.6821 0.0000 -200397.9522 21574.3174 76.7774 0.0000 0.0000 -175069.4037 0.0000 -175069.4037 -175069.4037 0.0000 16239.8988 -27144.8734 534946.2959 16239.8988 -27144.8734
ENERGY: 720 163.1539 644.9200 2839.0746 0.0000 -200619.4782 21639.4300 79.9047 0.0000 0.0000 -175252.9949 0.0000 -175252.9949 -175252.9949 0.0000 16255.6016 -4930.6654 534946.2959 16255.6016 -4930.6654
ENERGY: 740 178.1727 658.6371 2835.4368 0.0000 -201152.0935 21842.0845 86.2469 0.0000 0.0000 -175551.5156 0.0000 -175551.5156 -175551.5156 0.0000 16338.5169 -4909.5667 534946.2959 16338.5169 -4909.5667
ENERGY: 760 225.6875 684.5255 2837.5842 0.0000 -201657.3579 22026.0642 90.3021 0.0000 0.0000 -175793.1943 0.0000 -175793.1943 -175793.1943 0.0000 16384.2282 -4923.0745 534946.2959 16384.2282 -4923.0745
ENERGY: 780 189.4930 665.4295 2833.8303 0.0000 -202198.4907 22275.2657 93.0574 0.0000 0.0000 -176141.4148 0.0000 -176141.4148 -176141.4148 0.0000 16605.4957 -4783.8743 534946.2959 16605.4957 -4783.8743
ENERGY: 800 163.9744 660.1489 2831.5399 0.0000 -202829.2811 22569.7992 97.4299 0.0000 0.0000 -176506.3887 0.0000 -176506.3887 -176506.3887 0.0000 16746.4283 -4698.4848 534946.2959 16746.4283 -4698.4848
TCL: Setting parameter constraintScaling to 0.0390625
TCL: Minimizing for 100 steps
ETITLE: TS BOND ANGLE DIHED IMPRP ELECT VDW BOUNDARY MISC KINETIC TOTAL TEMP POTENTIAL TOTAL3 TEMPAVG PRESSURE GPRESSURE VOLUME PRESSAVG GPRESSAVG
ENERGY: 800 163.9744 660.1489 2831.5399 0.0000 -202829.2811 22569.7992 48.7149 0.0000 0.0000 -176555.1037 0.0000 -176555.1037 -176555.1037 0.0000 16789.4662 -27185.6242 534946.2959 16789.4662 -27185.6242
ENERGY: 820 164.3484 648.1427 2824.2814 0.0000 -203046.0575 22604.9157 50.9890 0.0000 0.0000 -176753.3803 0.0000 -176753.3803 -176753.3803 0.0000 16777.7165 -4692.8703 534946.2959 16777.7165 -4692.8703
ENERGY: 840 197.2680 709.9676 2829.0630 0.0000 -203479.6717 22800.1082 54.4164 0.0000 0.0000 -176888.8485 0.0000 -176888.8485 -176888.8485 0.0000 16839.9889 -4690.2223 534946.2959 16839.9889 -4690.2223
ENERGY: 860 351.4716 794.6202 2843.1680 0.0000 -203813.5995 22943.2348 55.9738 0.0000 0.0000 -176825.1311 0.0000 -176825.1311 -176825.1311 0.0000 16911.0114 -4647.4675 534946.2959 16911.0114 -4647.4675
ENERGY: 880 168.9496 656.9100 2821.6358 0.0000 -203895.9677 22963.2461 55.3802 0.0000 0.0000 -177229.8460 0.0000 -177229.8460 -177229.8460 0.0000 16962.5440 -4615.2349 534946.2959 16962.5440 -4615.2349
ENERGY: 900 166.5869 653.0088 2817.8941 0.0000 -204380.0502 23170.4507 57.5641 0.0000 0.0000 -177514.5456 0.0000 -177514.5456 -177514.5456 0.0000 17063.2245 -4569.7271 534946.2959 17063.2245 -4569.7271
TCL: Setting parameter constraintScaling to 0.01953125
TCL: Minimizing for 100 steps
ETITLE: TS BOND ANGLE DIHED IMPRP ELECT VDW BOUNDARY MISC KINETIC TOTAL TEMP POTENTIAL TOTAL3 TEMPAVG PRESSURE GPRESSURE VOLUME PRESSAVG GPRESSAVG
ENERGY: 900 166.5869 653.0088 2817.8941 0.0000 -204380.0502 23170.4507 28.7821 0.0000 0.0000 -177543.3277 0.0000 -177543.3277 -177543.3277 0.0000 17087.2020 -27253.3276 534946.2959 17087.2020 -27253.3276
ENERGY: 920 247.3906 683.1085 2820.6360 0.0000 -204645.8255 23279.1558 30.4628 0.0000 0.0000 -177585.0719 0.0000 -177585.0719 -177585.0719 0.0000 17078.9279 -4578.4116 534946.2959 17078.9279 -4578.4116
ENERGY: 940 164.0937 657.0760 2814.0148 0.0000 -204711.3179 23304.3124 30.5206 0.0000 0.0000 -177741.3005 0.0000 -177741.3005 -177741.3005 0.0000 17133.2853 -4531.0140 534946.2959 17133.2853 -4531.0140
ENERGY: 960 346.1005 801.8876 2833.0445 0.0000 -205222.9445 23558.4311 31.6523 0.0000 0.0000 -177651.8284 0.0000 -177651.8284 -177651.8284 0.0000 17278.9089 -4482.0190 534946.2959 17278.9089 -4482.0190
ENERGY: 980 159.9854 651.6955 2812.9325 0.0000 -205149.4815 23491.8598 31.5110 0.0000 0.0000 -178001.4973 0.0000 -178001.4973 -178001.4973 0.0000 17235.6763 -4479.8885 534946.2959 17235.6763 -4479.8885
ENERGY: 1000 169.7342 660.6477 2812.5290 0.0000 -205297.1500 23553.8129 32.3409 0.0000 0.0000 -178068.0852 0.0000 -178068.0852 -178068.0852 0.0000 17249.4538 -4484.0326 534946.2959 17249.4538 -4484.0326
TCL: Setting parameter constraintScaling to 0
TCL: Minimizing for 5000 steps
ETITLE: TS BOND ANGLE DIHED IMPRP ELECT VDW BOUNDARY MISC KINETIC TOTAL TEMP POTENTIAL TOTAL3 TEMPAVG PRESSURE GPRESSURE VOLUME PRESSAVG GPRESSAVG
ENERGY: 1000 169.7342 660.6477 2812.5290 0.0000 -205297.1500 23553.8129 0.0000 0.0000 0.0000 -178100.4261 0.0000 -178100.4261 -178100.4261 0.0000 17275.2458 -27271.1997 534946.2959 17275.2458 -27271.1997
ENERGY: 2000 177.3806 674.3906 2802.9848 0.0000 -214975.0167 28032.7001 0.0000 0.0000 0.0000 -183287.5607 0.0000 -183287.5607 -183287.5607 0.0000 19671.6568 -3145.8412 534946.2959 19671.6568 -3145.8412
ENERGY: 3000 167.9799 664.5815 2794.3903 0.0000 -217766.0095 29030.4348 0.0000 0.0000 0.0000 -185108.6229 0.0000 -185108.6229 -185108.6229 0.0000 20185.6410 -2923.3295 534946.2959 20185.6410 -2923.3295
ENERGY: 4000 168.6103 668.0667 2792.6424 0.0000 -218797.6640 29424.0207 0.0000 0.0000 0.0000 -185744.3239 0.0000 -185744.3239 -185744.3239 0.0000 20395.4183 -2818.1058 534946.2959 20395.4183 -2818.1058
ENERGY: 5000 165.8403 663.7423 2791.0438 0.0000 -219565.0749 29758.8520 0.0000 0.0000 0.0000 -186185.5966 0.0000 -186185.5966 -186185.5966 0.0000 20572.2541 -2719.4043 534946.2959 20572.2541 -2719.4043
ENERGY: 6000 165.7331 665.9506 2789.9616 0.0000 -219947.1879 29878.6119 0.0000 0.0000 0.0000 -186446.9307 0.0000 -186446.9307 -186446.9307 0.0000 20629.2110 -2703.9396 534946.2959 20629.2110 -2703.9396
