Info: SIMULATION PARAMETERS:
Info: TIMESTEP               1
Info: NUMBER OF STEPS        0
Info: STEPS PER CYCLE        10
Info: PERIODIC CELL BASIS 1  72.449 0 0
Info: PERIODIC CELL BASIS 2  0 93.247 0
Info: PERIODIC CELL BASIS 3  0 0 79.185
Info: PERIODIC CELL CENTER   -0.248 -0.156 -0.047
Info: WRAPPING WATERS AROUND PERIODIC BOUNDARIES ON OUTPUT.
Info: WRAPPING ALL CLUSTERS AROUND PERIODIC BOUNDARIES ON OUTPUT.
Info: FIRST LDB TIMESTEP     50
Info: LAST LDB TIMESTEP     -1
Info: HOM BACKGROUND SCALING 1
Info: PME BACKGROUND SCALING 1
Info: MIN ATOMS PER PATCH    40
Info: VELOCITY FILE          ../replicas/rep122/equilibration/eq1.vel
Info: CENTER OF MASS MOVING INITIALLY? NO
Info: DIELECTRIC             1
Info: EXCLUDE                SCALED ONE-FOUR
Info: 1-4 ELECTROSTATICS SCALED BY 0.833333
Info: MODIFIED 1-4 VDW PARAMETERS WILL BE USED
Info: DCD FILENAME           ../replicas/rep122/equilibration/eq2.dcd
Info: DCD FREQUENCY          5000
Info: DCD FIRST STEP         5000
Info: DCD FILE WILL CONTAIN UNIT CELL DATA
Info: XST FILENAME           ../replicas/rep122/equilibration/eq2.xst
Info: XST FREQUENCY          5000
Info: NO VELOCITY DCD OUTPUT
Info: NO FORCE DCD OUTPUT
Info: OUTPUT FILENAME        ../replicas/rep122/equilibration/eq2
Info: RESTART FILENAME       ../replicas/rep122/equilibration/eq2.restart
Info: RESTART FREQUENCY      5000
Info: BINARY RESTART FILES WILL BE USED
Info: SWITCHING ACTIVE
Info: SWITCHING ON           10
Info: SWITCHING OFF          12
Info: PAIRLIST DISTANCE      13.5
Info: PAIRLIST SHRINK RATE   0.01
Info: PAIRLIST GROW RATE     0.01
Info: PAIRLIST TRIGGER       0.3
Info: PAIRLISTS PER CYCLE    2
Info: PAIRLISTS ENABLED
Info: MARGIN                 0.48
Info: HYDROGEN GROUP CUTOFF  2.5
Info: PATCH DIMENSION        16.48
Info: ENERGY OUTPUT STEPS    500
Info: CROSSTERM ENERGY INCLUDED IN DIHEDRAL
Info: TIMING OUTPUT STEPS    5000
Info: PRESSURE OUTPUT STEPS  500
Info: HARMONIC CONSTRAINTS ACTIVE
Info: HARMONIC CONS EXP      2
Info: HARMONIC CONS SCALING  10
Info: LANGEVIN DYNAMICS ACTIVE
Info: LANGEVIN TEMPERATURE   300
Info: LANGEVIN USING BBK INTEGRATOR
Info: LANGEVIN DAMPING COEFFICIENT IS 5 INVERSE PS
Info: LANGEVIN DYNAMICS NOT APPLIED TO HYDROGENS
Info: BERENDSEN PRESSURE COUPLING ACTIVE
Info:     TARGET PRESSURE IS 1 BAR
Info:     COMPRESSIBILITY ESTIMATE IS 4.57e-05 BAR^(-1)
Info:     RELAXATION TIME IS 100 FS
Info:     APPLIED EVERY 2 STEPS
Info:     PRESSURE CONTROL IS GROUP-BASED
Info:       CELL FLUCTUATION IS ISOTROPIC
Info: PARTICLE MESH EWALD (PME) ACTIVE
Info: PME TOLERANCE               1e-06
Info: PME EWALD COEFFICIENT       0.257952
Info: PME INTERPOLATION ORDER     4
Info: PME GRID DIMENSIONS         80 96 80
Info: PME MAXIMUM GRID SPACING    1
Info: FULL ELECTROSTATIC EVALUATION FREQUENCY      2
Info: USING VERLET I (r-RESPA) MTS SCHEME.
Info: C1 SPLITTING OF LONG RANGE ELECTROSTATICS
Info: PLACING ATOMS IN PATCHES BY HYDROGEN GROUPS
Info: RIGID BONDS TO HYDROGEN : WATER
Info:         ERROR TOLERANCE : 1e-05
Info:          MAX ITERATIONS : 100
Info: RIGID WATER USING SETTLE ALGORITHM
Info: RANDOM NUMBER SEED     1503695072
Info: USE HYDROGEN BONDS?    NO
Info: Using AMBER format force field!
Info: AMBER PARM FILE        ../build/complex.top
Info: COORDINATE PDB         ../replicas/rep122/equilibration/eq1.coor
Info: Exclusions in PARM file will be ignored!
Info: SCNB (VDW SCALING)     2
Info: USING ARITHMETIC MEAN TO COMBINE L-J SIGMA PARAMETERS
Info: SUMMARY OF PARAMETERS:
Info: 71 BONDS
Info: 145 ANGLES
Info: 76 DIHEDRAL
Info: 0 IMPROPER
Info: 0 CROSSTERM
Info: 0 VDW
Info: 190 VDW_PAIRS
Info: 0 NBTHOLE_PAIRS
Info: STRUCTURE SUMMARY:
Info: 49394 ATOMS
Info: 49448 BONDS
Info: 8698 ANGLES
Info: 18780 DIHEDRALS
Info: 0 IMPROPERS
Info: 0 CROSSTERMS
Info: 0 EXCLUSIONS
Info: 2336 CONSTRAINTS
Info: 44667 RIGID BONDS
Info: 103515 DEGREES OF FREEDOM
Info: 17225 HYDROGEN GROUPS
Info: 4 ATOMS IN LARGEST HYDROGEN GROUP
Info: 17225 MIGRATION GROUPS
Info: 4 ATOMS IN LARGEST MIGRATION GROUP
Info: TOTAL MASS = 301478 amu
Info: TOTAL CHARGE = 1.00115e-05 e
Info: MASS DENSITY = 0.935846 g/cm^3
Info: ATOM DENSITY = 0.0923345 atoms/A^3
Info: ADDED 70656 IMPLICIT EXCLUSIONS
Info: NONBONDED TABLE R-SQUARED SPACING: 0.0625
Info: NONBONDED TABLE SIZE: 769 POINTS
Info: REMOVING COM VELOCITY 0.00250981 7.11536e-05 -0.00390741
TCL: Running for 5000 steps
ETITLE: TS BOND ANGLE DIHED IMPRP ELECT VDW BOUNDARY MISC KINETIC TOTAL TEMP POTENTIAL TOTAL3 TEMPAVG PRESSURE GPRESSURE VOLUME PRESSAVG GPRESSAVG
ENERGY: 0 400.3007 1226.4706 2926.8025 0.0000 -212935.2830 29786.6103 0.0000 0.0000 10056.0259 -168539.0730 97.7718 -178595.0989 -168529.4461 97.7718 -2258.1517 -2357.5380 534946.2959 -2258.1517 -2357.5380
ENERGY: 1000 1267.6513 1957.7043 3131.5969 0.0000 -193361.3759 26491.0905 745.1530 0.0000 24131.3700 -135636.8099 234.6222 -159768.1799 -135611.0940 218.7004 -47.7681 18.9520 524913.4320 7.9925 7.9472
ENERGY: 2000 1477.3932 2149.4167 3152.3726 0.0000 -183549.9198 22948.4790 796.8371 0.0000 28169.1231 -124856.2981 273.8801 -153025.4212 -124828.3774 264.8075 40.7527 -17.8516 517952.4158 -29.1280 -29.2639
ENERGY: 3000 1469.6347 2234.2625 3144.2184 0.0000 -178933.4747 21608.3342 786.3154 0.0000 29722.6596 -119968.0498 288.9846 -149690.7094 -119913.9466 284.7486 -172.5682 -47.8471 511493.0027 -34.3130 -35.0590
ENERGY: 4000 1558.7082 2165.9297 3135.6882 0.0000 -176667.0407 20791.2112 786.6530 0.0000 30221.6697 -118007.1806 293.8364 -148228.8503 -117969.7776 293.3806 -65.6827 -31.5598 506903.7008 -18.0363 -18.2288
ENERGY: 5000 1606.2925 2285.2724 3141.6054 0.0000 -175660.9884 20161.9904 798.4490 0.0000 30734.6324 -116932.7463 298.8238 -147667.3787 -116886.7938 297.2604 -130.6511 -67.0132 505027.3165 -4.5144 -4.1704
TCL: Setting parameter constraintScaling to 5.0
TCL: Running for 5000 steps
ETITLE: TS BOND ANGLE DIHED IMPRP ELECT VDW BOUNDARY MISC KINETIC TOTAL TEMP POTENTIAL TOTAL3 TEMPAVG PRESSURE GPRESSURE VOLUME PRESSAVG GPRESSAVG
ENERGY: 5000 1606.2925 2285.2724 3141.6054 0.0000 -175660.9884 20161.9904 399.2245 0.0000 30732.5655 -117334.0377 298.8037 -148066.6032 -117288.8721 298.8037 -236.7683 -165.6042 505027.3165 -236.7683 -165.6042
ENERGY: 6000 1572.4492 2286.6995 3186.0090 0.0000 -175467.6872 20299.1619 629.5011 0.0000 30708.9360 -116784.9305 298.5739 -147493.8665 -116748.3522 299.4119 2.1392 41.8381 503050.6381 -5.8020 -5.8272
ENERGY: 7000 1632.1806 2332.1070 3186.7962 0.0000 -175686.9065 20285.9947 634.2796 0.0000 30868.0364 -116747.5119 300.1208 -147615.5483 -116699.1283 299.8916 -5.5235 10.2306 503323.3693 10.5607 9.8976
ENERGY: 8000 1605.0878 2302.0589 3176.7254 0.0000 -175068.6977 20005.2983 671.7114 0.0000 30853.8734 -116453.9426 299.9831 -147307.8160 -116403.5087 299.6517 -80.5487 -7.0466 502290.9867 -1.2057 -1.2810
ENERGY: 9000 1600.1931 2341.1255 3187.6826 0.0000 -175513.5179 20074.0544 623.0656 0.0000 30947.2135 -116740.1833 300.8906 -147687.3968 -116712.9696 299.9776 -19.3258 26.9292 500485.5360 -9.8810 -10.1810
ENERGY: 10000 1586.6413 2411.2345 3168.5214 0.0000 -175956.8709 20296.2746 653.7820 0.0000 30710.1170 -117130.3000 298.5854 -147840.4170 -117084.9694 299.2949 48.5689 -33.7389 500451.7142 -9.5243 -9.4044
TCL: Setting parameter constraintScaling to 2.5
TCL: Running for 5000 steps
ETITLE: TS BOND ANGLE DIHED IMPRP ELECT VDW BOUNDARY MISC KINETIC TOTAL TEMP POTENTIAL TOTAL3 TEMPAVG PRESSURE GPRESSURE VOLUME PRESSAVG GPRESSAVG
ENERGY: 10000 1586.6413 2411.2345 3168.5214 0.0000 -175956.8709 20296.2746 326.8910 0.0000 30708.0867 -117459.2213 298.5657 -148167.3080 -117414.3161 298.5657 62.7356 -19.6613 500451.7142 62.7356 -19.6613
ENERGY: 11000 1602.5253 2358.5067 3176.0566 0.0000 -175840.9772 20185.8787 545.1936 0.0000 30544.1147 -117428.7016 296.9714 -147972.8162 -117393.0493 298.0800 65.8475 -28.2956 500638.5544 10.2886 9.4479
ENERGY: 12000 1598.3125 2338.2427 3159.1209 0.0000 -175726.2972 19946.3723 522.9729 0.0000 30733.8949 -117427.3811 298.8166 -148161.2760 -117391.3556 298.4926 52.6096 -1.6027 500412.7882 9.4547 9.4640
ENERGY: 13000 1636.4956 2354.2297 3166.9398 0.0000 -175533.9971 20131.4408 510.6922 0.0000 30884.3384 -116849.8607 300.2793 -147734.1991 -116796.4941 299.5027 -12.4430 19.0873 499401.8183 -4.8262 -4.3818
ENERGY: 14000 1614.8605 2384.4979 3153.8611 0.0000 -175418.1001 19835.4328 533.7477 0.0000 30898.2613 -116997.4387 300.4147 -147895.7000 -116951.7220 299.8410 21.3127 -22.1655 499162.9389 0.8778 0.6073
ENERGY: 15000 1623.3450 2322.6557 3213.8507 0.0000 -175398.0773 20008.3013 517.7530 0.0000 31050.8726 -116661.2991 301.8985 -147712.1717 -116621.8552 301.0560 -1.2186 6.6326 500826.2148 5.5228 5.1570
TCL: Setting parameter constraintScaling to 1.25
TCL: Running for 5000 steps
ETITLE: TS BOND ANGLE DIHED IMPRP ELECT VDW BOUNDARY MISC KINETIC TOTAL TEMP POTENTIAL TOTAL3 TEMPAVG PRESSURE GPRESSURE VOLUME PRESSAVG GPRESSAVG
ENERGY: 15000 1623.3450 2322.6557 3213.8507 0.0000 -175398.0773 20008.3013 258.8765 0.0000 31048.8354 -116922.2128 301.8787 -147971.0482 -116879.9842 301.8787 -40.6454 -35.5009 500826.2148 -40.6454 -35.5009
ENERGY: 16000 1661.3553 2336.5655 3236.7042 0.0000 -175466.7952 19930.0397 394.7038 0.0000 30906.0317 -117001.3950 300.4902 -147907.4268 -116958.2480 301.2544 10.3067 33.2849 499668.4014 0.6016 0.1155
ENERGY: 17000 1596.9433 2398.7231 3206.1258 0.0000 -175311.0234 19931.2233 404.6934 0.0000 30777.2865 -116996.0279 299.2385 -147773.3144 -116956.5609 299.8102 -67.4552 -46.2214 502052.8230 17.0254 16.7501
ENERGY: 18000 1693.0030 2383.2162 3186.5757 0.0000 -176060.5405 20312.2843 389.0252 0.0000 30727.2107 -117369.2255 298.7516 -148096.4362 -117313.2281 298.9576 -103.5464 -88.5792 499186.3018 -8.4291 -8.3107
ENERGY: 19000 1603.3276 2471.8884 3209.0458 0.0000 -175629.9544 19980.9331 397.1155 0.0000 30628.2051 -117339.4389 297.7890 -147967.6440 -117294.5633 299.1648 -99.9492 -52.1393 498787.2888 -4.6862 -4.1268
ENERGY: 20000 1670.6107 2397.3389 3185.1322 0.0000 -175645.1253 20019.9459 382.1965 0.0000 30734.4118 -117255.4892 298.8216 -147989.9010 -117213.1889 298.8812 -257.7370 -65.3303 499404.4692 -8.7711 -8.2764
TCL: Setting parameter constraintScaling to 0.625
TCL: Running for 5000 steps
ETITLE: TS BOND ANGLE DIHED IMPRP ELECT VDW BOUNDARY MISC KINETIC TOTAL TEMP POTENTIAL TOTAL3 TEMPAVG PRESSURE GPRESSURE VOLUME PRESSAVG GPRESSAVG
ENERGY: 20000 1670.6107 2397.3389 3185.1322 0.0000 -175645.1253 20019.9459 191.0983 0.0000 30732.3762 -117448.6231 298.8018 -148180.9993 -117405.2321 298.8018 -329.8657 -135.1215 499404.4692 -329.8657 -135.1215
ENERGY: 21000 1638.3425 2385.3682 3201.4467 0.0000 -175824.0395 20105.0691 298.3766 0.0000 30730.6366 -117464.7998 298.7849 -148195.4364 -117421.1044 299.3593 4.1797 11.3239 498814.8137 -8.3330 -8.0445
ENERGY: 22000 1666.6619 2424.2843 3220.5381 0.0000 -175964.4613 20212.8496 284.2027 0.0000 30835.8688 -117320.0559 299.8080 -148155.9247 -117281.5497 298.7212 -153.9457 -71.1650 498068.3863 -5.1128 -5.3060
ENERGY: 23000 1604.9477 2372.5706 3222.1062 0.0000 -176002.4582 20152.0411 307.9032 0.0000 30799.3813 -117543.5081 299.4533 -148342.8894 -117497.2232 299.2091 -44.4017 -45.8436 496870.2832 -3.3759 -3.5857
ENERGY: 24000 1609.6587 2359.4292 3164.7062 0.0000 -175847.2542 20155.1346 315.1556 0.0000 30673.7095 -117569.4604 298.2314 -148243.1700 -117526.1990 299.0759 -1.8697 -0.2418 498586.1621 14.3182 14.1117
ENERGY: 25000 1591.2564 2424.6884 3206.2380 0.0000 -175577.3106 19832.1548 316.8314 0.0000 30847.8965 -117358.2452 299.9250 -148206.1417 -117307.1998 298.8932 -36.5901 17.7513 498310.0406 2.6940 2.2482
TCL: Setting parameter constraintScaling to 0.3125
TCL: Running for 5000 steps
ETITLE: TS BOND ANGLE DIHED IMPRP ELECT VDW BOUNDARY MISC KINETIC TOTAL TEMP POTENTIAL TOTAL3 TEMPAVG PRESSURE GPRESSURE VOLUME PRESSAVG GPRESSAVG
ENERGY: 25000 1591.2564 2424.6884 3206.2380 0.0000 -175577.3106 19832.1548 158.4157 0.0000 30845.8668 -117518.6905 299.9053 -148364.5574 -117470.7044 299.9053 -68.7961 -17.4116 498310.0406 -68.7961 -17.4116
ENERGY: 26000 1614.6590 2399.9517 3216.8161 0.0000 -175645.1268 19997.3505 246.0298 0.0000 30858.1493 -117312.1704 300.0247 -148170.3197 -117274.9484 299.9964 -29.4678 -30.8573 498294.0985 3.8838 3.6165
ENERGY: 27000 1665.5151 2377.6989 3230.3288 0.0000 -175977.5697 20096.9504 240.1227 0.0000 30872.9461 -117494.0078 300.1685 -148366.9539 -117450.1741 300.0868 -51.3048 -47.4797 496045.6931 -8.6741 -8.3833
ENERGY: 28000 1621.5170 2384.3759 3211.5403 0.0000 -175546.7654 19924.9790 244.0378 0.0000 30921.7590 -117238.5565 300.6431 -148160.3154 -117196.7113 300.1108 0.6410 2.0397 498171.8941 0.1043 -0.3521
ENERGY: 29000 1641.8524 2344.0124 3207.2401 0.0000 -175679.1674 19835.3754 260.0159 0.0000 31003.9083 -117386.7629 301.4418 -148390.6712 -117352.2785 299.5723 -12.0521 27.8839 498160.5233 12.5987 12.6602
ENERGY: 30000 1631.8187 2409.8831 3201.7174 0.0000 -175959.0864 20027.7199 245.2291 0.0000 31044.6717 -117398.0466 301.8382 -148442.7183 -117355.4473 299.9070 1.9559 -6.1830 495876.3129 -7.1048 -7.3031
TCL: Setting parameter constraintScaling to 0.15625
TCL: Running for 5000 steps
ETITLE: TS BOND ANGLE DIHED IMPRP ELECT VDW BOUNDARY MISC KINETIC TOTAL TEMP POTENTIAL TOTAL3 TEMPAVG PRESSURE GPRESSURE VOLUME PRESSAVG GPRESSAVG
ENERGY: 30000 1631.8187 2409.8831 3201.7174 0.0000 -175959.0864 20027.7199 122.6145 0.0000 31042.6145 -117522.7183 301.8182 -148565.3328 -117480.1566 301.8182 16.9405 0.2463 495876.3129 16.9405 0.2463
ENERGY: 31000 1594.0384 2375.8749 3239.7045 0.0000 -175543.2679 19918.3598 203.6795 0.0000 30930.5571 -117281.0536 300.7287 -148211.6108 -117230.8032 299.3228 -43.7965 -1.8872 497960.9910 6.7929 6.6161
ENERGY: 32000 1569.0840 2433.8506 3244.2757 0.0000 -175977.8131 20273.3500 209.3652 0.0000 30852.1913 -117395.6962 299.9667 -148247.8875 -117352.1147 299.7675 -82.2864 -13.0254 499139.4171 6.7882 6.9930
ENERGY: 33000 1650.4674 2367.5661 3232.9845 0.0000 -175922.1200 20183.4350 217.2282 0.0000 30593.4302 -117677.0086 297.4509 -148270.4388 -117640.1166 300.2854 -76.9318 -38.5733 498768.7337 -1.5996 -1.2036
ENERGY: 34000 1605.9868 2374.4745 3192.6972 0.0000 -176187.6709 20167.8489 212.7842 0.0000 30848.3759 -117785.5034 299.9297 -148633.8792 -117735.5249 299.3547 -104.0599 -72.8756 498367.7943 5.0678 5.2094
ENERGY: 35000 1550.7786 2388.8776 3202.3891 0.0000 -176291.3604 20217.3076 220.7960 0.0000 30905.0690 -117806.1425 300.4809 -148711.2116 -117760.8305 298.0714 -1.6843 38.1166 497168.7716 -3.0918 -2.7172
TCL: Setting parameter constraintScaling to 0.078125
TCL: Running for 5000 steps
ETITLE: TS BOND ANGLE DIHED IMPRP ELECT VDW BOUNDARY MISC KINETIC TOTAL TEMP POTENTIAL TOTAL3 TEMPAVG PRESSURE GPRESSURE VOLUME PRESSAVG GPRESSAVG
ENERGY: 35000 1550.7786 2388.8776 3202.3891 0.0000 -176291.3604 20217.3076 110.3980 0.0000 30903.0370 -117918.5725 300.4611 -148821.6095 -117875.0951 300.4611 -6.1961 31.1829 497168.7716 -6.1961 31.1829
ENERGY: 36000 1665.7781 2387.2310 3248.8849 0.0000 -176072.5339 20202.0690 142.9225 0.0000 30633.6180 -117792.0304 297.8416 -148425.6484 -117743.9623 298.9280 -13.4774 49.5218 496892.6233 8.7241 8.8073
ENERGY: 37000 1672.4811 2395.6298 3233.7587 0.0000 -175565.6691 20000.1107 150.5546 0.0000 30989.2180 -117123.9162 301.2990 -148113.1342 -117076.3797 300.9813 34.9352 16.7692 498562.3779 1.5953 2.0283
ENERGY: 38000 1636.3088 2397.2962 3206.7217 0.0000 -176101.4182 20231.5675 167.1672 0.0000 30798.2230 -117664.1339 299.4420 -148462.3569 -117617.8845 299.2469 104.6015 57.5017 496704.0951 -20.9287 -21.4070
ENERGY: 39000 1588.6981 2427.2389 3273.8487 0.0000 -175696.7167 20046.0301 166.8426 0.0000 30926.4910 -117267.5673 300.6891 -148194.0583 -117225.9069 299.7514 118.5227 85.5498 498583.7060 4.2411 4.6559
ENERGY: 40000 1622.2582 2406.8402 3239.9844 0.0000 -175577.1255 19871.8435 168.6736 0.0000 30877.7811 -117389.7445 300.2155 -148267.5256 -117347.3479 299.8710 -29.9560 -64.9270 497911.3135 -7.2364 -6.9594
TCL: Setting parameter constraintScaling to 0.0390625
TCL: Running for 5000 steps
ETITLE: TS BOND ANGLE DIHED IMPRP ELECT VDW BOUNDARY MISC KINETIC TOTAL TEMP POTENTIAL TOTAL3 TEMPAVG PRESSURE GPRESSURE VOLUME PRESSAVG GPRESSAVG
ENERGY: 40000 1622.2582 2406.8402 3239.9844 0.0000 -175577.1255 19871.8435 84.3368 0.0000 30875.7330 -117476.1294 300.1956 -148351.8624 -117432.6818 300.1956 -58.2572 -85.0726 497911.3135 -58.2572 -85.0726
ENERGY: 41000 1676.7170 2469.5691 3215.9004 0.0000 -175571.3141 20144.8785 119.0947 0.0000 30750.4787 -117194.6758 298.9778 -147945.1545 -117163.6771 301.2244 23.2055 170.6943 498658.7657 13.2755 12.8949
ENERGY: 42000 1576.4301 2374.8690 3222.1354 0.0000 -175692.8890 19886.7875 114.0308 0.0000 30750.8764 -117767.7598 298.9817 -148518.6362 -117733.9152 299.4441 -175.0137 -48.0421 496920.0873 -4.4515 -4.7394
ENERGY: 43000 1668.7379 2421.3413 3191.5505 0.0000 -176280.0480 20180.9898 123.6737 0.0000 30656.4173 -118037.3375 298.0633 -148693.7548 -117997.4546 299.2143 85.5857 31.3611 496590.3004 3.9722 4.3126
ENERGY: 44000 1647.2336 2416.7951 3213.2111 0.0000 -175657.3828 19997.5532 131.4597 0.0000 30865.0757 -117386.0545 300.0920 -148251.1301 -117345.7035 299.9232 -70.7157 -51.6735 497274.1354 1.5176 1.9934
ENERGY: 45000 1633.5504 2388.6766 3216.2328 0.0000 -175582.4471 20000.2676 126.6861 0.0000 30659.7746 -117557.2589 298.0959 -148217.0335 -117508.5617 299.8319 5.3816 8.6803 497151.3025 -3.5995 -4.0030
TCL: Setting parameter constraintScaling to 0.01953125
TCL: Running for 5000 steps
ETITLE: TS BOND ANGLE DIHED IMPRP ELECT VDW BOUNDARY MISC KINETIC TOTAL TEMP POTENTIAL TOTAL3 TEMPAVG PRESSURE GPRESSURE VOLUME PRESSAVG GPRESSAVG
ENERGY: 45000 1633.5504 2388.6766 3216.2328 0.0000 -175582.4471 20000.2676 63.3431 0.0000 30657.7414 -117622.6352 298.0762 -148280.3766 -117578.7693 298.0762 3.3590 13.4189 497151.3025 3.3590 13.4189
ENERGY: 46000 1657.6436 2367.2287 3226.9231 0.0000 -175607.7132 19917.0939 77.3893 0.0000 30955.2540 -117406.1805 300.9688 -148361.4345 -117352.6462 300.3851 -44.6732 -51.5556 495773.0497 -5.0475 -5.0796
ENERGY: 47000 1605.6567 2397.8562 3220.0307 0.0000 -175826.4794 20058.0774 79.7326 0.0000 30842.5386 -117622.5873 299.8729 -148465.1258 -117579.9119 300.0678 41.8504 68.8161 495985.2647 3.1081 2.9975
ENERGY: 48000 1653.2213 2457.6660 3180.0938 0.0000 -176451.7538 20351.0283 90.7302 0.0000 31050.6488 -117668.3655 301.8963 -148719.0143 -117630.0476 299.4833 7.4673 31.6084 497140.3986 7.6239 7.8119
ENERGY: 49000 1724.1341 2417.6234 3186.5204 0.0000 -176081.7480 20069.1906 93.5091 0.0000 30953.0805 -117637.6899 300.9477 -148590.7704 -117594.0101 300.8641 -16.2019 -25.8585 497415.6668 1.8391 1.9733
ENERGY: 50000 1642.9760 2423.3019 3220.7833 0.0000 -176079.0911 20049.3417 89.3952 0.0000 30873.8569 -117779.4361 300.1774 -148653.2930 -117734.9347 299.3965 -32.9967 -2.9638 496064.6209 2.2276 1.8258
TCL: Setting parameter constraintScaling to 0
TCL: Running for 5000 steps
ETITLE: TS BOND ANGLE DIHED IMPRP ELECT VDW BOUNDARY MISC KINETIC TOTAL TEMP POTENTIAL TOTAL3 TEMPAVG PRESSURE GPRESSURE VOLUME PRESSAVG GPRESSAVG
ENERGY: 50000 1642.9760 2423.3019 3220.7833 0.0000 -176079.0911 20049.3417 0.0000 0.0000 30871.8017 -117870.8866 300.1574 -148742.6883 -117829.5874 300.1574 -27.4702 3.9922 496064.6209 -27.4702 3.9922
ENERGY: 51000 1663.1298 2339.8158 3190.2100 0.0000 -175937.6261 20023.0941 0.0000 0.0000 30757.7391 -117963.6374 299.0484 -148721.3764 -117896.4118 298.3645 -24.7264 68.2798 495813.5765 4.9791 5.3491
ENERGY: 52000 1601.8474 2416.7309 3208.9446 0.0000 -176134.3871 20145.6526 0.0000 0.0000 30717.4580 -118043.7536 298.6568 -148761.2116 -118003.1459 299.0852 -132.1844 22.4596 496818.8306 -1.4960 -1.6034
ENERGY: 53000 1618.6547 2452.4039 3220.0104 0.0000 -176134.3589 19921.2939 0.0000 0.0000 30745.6887 -118176.3073 298.9313 -148921.9960 -118131.1758 298.8182 -43.0868 -71.4735 495984.2859 -5.0536 -4.7992
ENERGY: 54000 1640.7726 2389.8592 3238.6405 0.0000 -176033.0599 20226.3908 0.0000 0.0000 30679.9111 -117857.4856 298.2917 -148537.3967 -117814.2410 300.0045 60.4110 123.4719 496196.1787 -0.7045 -0.5938
ENERGY: 55000 1615.0035 2378.9642 3252.7981 0.0000 -176064.5681 20273.3909 0.0000 0.0000 30728.0439 -117816.3674 298.7597 -148544.4113 -117770.6282 299.4906 12.6844 127.6030 498700.3061 9.5434 9.8542
