Info: SIMULATION PARAMETERS:
Info: TIMESTEP               2
Info: NUMBER OF STEPS        0
Info: STEPS PER CYCLE        10
Info: PERIODIC CELL BASIS 1  72.449 0 0
Info: PERIODIC CELL BASIS 2  0 93.247 0
Info: PERIODIC CELL BASIS 3  0 0 79.185
Info: PERIODIC CELL CENTER   -0.248 -0.156 -0.047
Info: WRAPPING WATERS AROUND PERIODIC BOUNDARIES ON OUTPUT.
Info: WRAPPING ALL CLUSTERS AROUND PERIODIC BOUNDARIES ON OUTPUT.
Info: FIRST LDB TIMESTEP     50
Info: LAST LDB TIMESTEP     -1
Info: HOM BACKGROUND SCALING 1
Info: PME BACKGROUND SCALING 1
Info: MIN ATOMS PER PATCH    40
Info: INITIAL TEMPERATURE    0
Info: CENTER OF MASS MOVING INITIALLY? NO
Info: DIELECTRIC             1
Info: EXCLUDE                SCALED ONE-FOUR
Info: 1-4 ELECTROSTATICS SCALED BY 0.833333
Info: MODIFIED 1-4 VDW PARAMETERS WILL BE USED
Info: NO DCD TRAJECTORY OUTPUT
Info: NO EXTENDED SYSTEM TRAJECTORY OUTPUT
Info: NO VELOCITY DCD OUTPUT
Info: NO FORCE DCD OUTPUT
Info: OUTPUT FILENAME        ../replicas/rep83/equilibration/eq0
Info: NO RESTART FILE
Info: SWITCHING ACTIVE
Info: SWITCHING ON           10
Info: SWITCHING OFF          12
Info: PAIRLIST DISTANCE      13.5
Info: PAIRLIST SHRINK RATE   0.01
Info: PAIRLIST GROW RATE     0.01
Info: PAIRLIST TRIGGER       0.3
Info: PAIRLISTS PER CYCLE    2
Info: PAIRLISTS ENABLED
Info: MARGIN                 0
Info: HYDROGEN GROUP CUTOFF  2.5
Info: PATCH DIMENSION        16
Info: ENERGY OUTPUT STEPS    500
Info: CROSSTERM ENERGY INCLUDED IN DIHEDRAL
Info: TIMING OUTPUT STEPS    5000
Info: PRESSURE OUTPUT STEPS  500
Info: HARMONIC CONSTRAINTS ACTIVE
Info: HARMONIC CONS EXP      2
Info: HARMONIC CONS SCALING  10
Info: CONJUGATE GRADIENT MINIMIZATION ACTIVE
Info: LINE MINIMIZATION GOAL = 0.001
Info: BABY STEP SIZE = 0.01
Info: TINY STEP SIZE = 1e-06
Info: PARTICLE MESH EWALD (PME) ACTIVE
Info: PME TOLERANCE               1e-06
Info: PME EWALD COEFFICIENT       0.257952
Info: PME INTERPOLATION ORDER     4
Info: PME GRID DIMENSIONS         80 96 80
Info: PME MAXIMUM GRID SPACING    1
Info: FULL ELECTROSTATIC EVALUATION FREQUENCY      2
Info: USING VERLET I (r-RESPA) MTS SCHEME.
Info: C1 SPLITTING OF LONG RANGE ELECTROSTATICS
Info: PLACING ATOMS IN PATCHES BY HYDROGEN GROUPS
Info: RIGID BONDS TO HYDROGEN : ALL
Info:         ERROR TOLERANCE : 1e-05
Info:          MAX ITERATIONS : 100
Info: RIGID WATER USING SETTLE ALGORITHM
Info: RANDOM NUMBER SEED     1503690982
Info: USE HYDROGEN BONDS?    NO
Info: Using AMBER format force field!
Info: AMBER PARM FILE        ../build/complex.top
Info: COORDINATE PDB         ../build/complex.pdb
Info: Exclusions in PARM file will be ignored!
Info: SCNB (VDW SCALING)     2
Info: USING ARITHMETIC MEAN TO COMBINE L-J SIGMA PARAMETERS
Info: SUMMARY OF PARAMETERS:
Info: 71 BONDS
Info: 145 ANGLES
Info: 76 DIHEDRAL
Info: 0 IMPROPER
Info: 0 CROSSTERM
Info: 0 VDW
Info: 190 VDW_PAIRS
Info: 0 NBTHOLE_PAIRS
Info: STRUCTURE SUMMARY:
Info: 49394 ATOMS
Info: 49448 BONDS
Info: 8698 ANGLES
Info: 18780 DIHEDRALS
Info: 0 IMPROPERS
Info: 0 CROSSTERMS
Info: 0 EXCLUSIONS
Info: 2336 CONSTRAINTS
Info: 47058 RIGID BONDS
Info: 101124 DEGREES OF FREEDOM
Info: 17225 HYDROGEN GROUPS
Info: 4 ATOMS IN LARGEST HYDROGEN GROUP
Info: 17225 MIGRATION GROUPS
Info: 4 ATOMS IN LARGEST MIGRATION GROUP
Info: TOTAL MASS = 301478 amu
Info: TOTAL CHARGE = 1.00115e-05 e
Info: MASS DENSITY = 0.935846 g/cm^3
Info: ATOM DENSITY = 0.0923345 atoms/A^3
Info: ADDED 70656 IMPLICIT EXCLUSIONS
Info: NONBONDED TABLE R-SQUARED SPACING: 0.0625
Info: NONBONDED TABLE SIZE: 769 POINTS
Info: REMOVING COM VELOCITY 0 0 0
TCL: Minimizing for 100 steps
ETITLE: TS BOND ANGLE DIHED IMPRP ELECT VDW BOUNDARY MISC KINETIC TOTAL TEMP POTENTIAL TOTAL3 TEMPAVG PRESSURE GPRESSURE VOLUME PRESSAVG GPRESSAVG
ENERGY: 0 155.4176 1012.2698 2855.7272 0.0000 -154496.7911 207729.2052 0.0468 0.0000 0.0000 57255.8755 0.0000 57255.8755 57255.8755 0.0000 116350.2532 86546.1670 534946.2959 116350.2532 86546.1670
ENERGY: 20 304.7542 935.7911 2893.4663 0.0000 -158672.9400 17936.6598 143.9454 0.0000 0.0000 -136458.3234 0.0000 -136458.3234 -136458.3234 0.0000 16523.9391 -239.4554 534946.2959 16523.9391 -239.4554
ENERGY: 40 198.7419 799.5724 2896.9273 0.0000 -162811.4535 16417.9535 221.3029 0.0000 0.0000 -142276.9555 0.0000 -142276.9555 -142276.9555 0.0000 15011.2702 -2135.4699 534946.2959 15011.2702 -2135.4699
ENERGY: 60 130.5285 715.3440 2898.2165 0.0000 -167496.1544 15446.7544 315.2795 0.0000 0.0000 -147990.0314 0.0000 -147990.0314 -147990.0314 0.0000 13793.8844 -3799.3978 534946.2959 13793.8844 -3799.3978
ENERGY: 80 431.2757 765.6312 2904.3783 0.0000 -169937.5261 15121.1527 372.0121 0.0000 0.0000 -150343.0759 0.0000 -150343.0759 -150343.0759 0.0000 13270.3318 -4577.2440 534946.2959 13270.3318 -4577.2440
ENERGY: 100 119.3883 710.0602 2905.2589 0.0000 -171259.7181 14991.7864 387.3613 0.0000 0.0000 -152145.8630 0.0000 -152145.8630 -152145.8630 0.0000 13056.2644 -4908.1743 534946.2959 13056.2644 -4908.1743
TCL: Setting parameter constraintScaling to 5.0
TCL: Minimizing for 100 steps
ETITLE: TS BOND ANGLE DIHED IMPRP ELECT VDW BOUNDARY MISC KINETIC TOTAL TEMP POTENTIAL TOTAL3 TEMPAVG PRESSURE GPRESSURE VOLUME PRESSAVG GPRESSAVG
ENERGY: 100 119.3883 710.0602 2905.2589 0.0000 -171259.7181 14991.7864 193.6806 0.0000 0.0000 -152339.5436 0.0000 -152339.5436 -152339.5436 0.0000 13672.7706 -23021.8202 534946.2959 13672.7706 -23021.8202
ENERGY: 120 108.8865 687.5853 2912.9268 0.0000 -172865.8677 14798.2713 281.1912 0.0000 0.0000 -154077.0065 0.0000 -154077.0065 -154077.0065 0.0000 13218.2574 -4906.0121 534946.2959 13218.2574 -4906.0121
ENERGY: 140 309.4736 708.8740 2913.8027 0.0000 -174236.5911 14731.4856 326.6373 0.0000 0.0000 -155246.3179 0.0000 -155246.3179 -155246.3179 0.0000 12971.5344 -5303.2256 534946.2959 12971.5344 -5303.2256
ENERGY: 160 265.0565 683.0608 2923.1635 0.0000 -176274.2201 14757.2697 382.8481 0.0000 0.0000 -157262.8215 0.0000 -157262.8215 -157262.8215 0.0000 12741.1003 -5743.1159 534946.2959 12741.1003 -5743.1159
ENERGY: 180 269.0143 744.0940 2928.5663 0.0000 -178994.5242 15023.3677 473.2567 0.0000 0.0000 -159556.2252 0.0000 -159556.2252 -159556.2252 0.0000 12521.6534 -6224.1293 534946.2959 12521.6534 -6224.1293
ENERGY: 200 238.7816 694.1052 2941.3553 0.0000 -181555.6609 15586.9115 546.2557 0.0000 0.0000 -161548.2517 0.0000 -161548.2517 -161548.2517 0.0000 12582.6359 -6420.9289 534946.2959 12582.6359 -6420.9289
TCL: Setting parameter constraintScaling to 2.5
TCL: Minimizing for 100 steps
ETITLE: TS BOND ANGLE DIHED IMPRP ELECT VDW BOUNDARY MISC KINETIC TOTAL TEMP POTENTIAL TOTAL3 TEMPAVG PRESSURE GPRESSURE VOLUME PRESSAVG GPRESSAVG
ENERGY: 200 238.7816 694.1052 2941.3553 0.0000 -181555.6609 15586.9115 273.1278 0.0000 0.0000 -161821.3795 0.0000 -161821.3795 -161821.3795 0.0000 13229.5289 -25651.6837 534946.2959 13229.5289 -25651.6837
ENERGY: 220 251.1299 680.0441 2933.0272 0.0000 -182082.8909 15470.6683 338.6608 0.0000 0.0000 -162409.3606 0.0000 -162409.3606 -162409.3606 0.0000 12967.5720 -6091.6506 534946.2959 12967.5720 -6091.6506
ENERGY: 240 139.2432 665.8310 2928.5952 0.0000 -182462.5348 15494.0607 343.6316 0.0000 0.0000 -162891.1731 0.0000 -162891.1731 -162891.1731 0.0000 13034.1906 -6104.3857 534946.2959 13034.1906 -6104.3857
ENERGY: 260 164.9475 683.7372 2921.6347 0.0000 -183940.9826 15800.3485 385.3849 0.0000 0.0000 -163984.9297 0.0000 -163984.9297 -163984.9297 0.0000 13031.9196 -6242.5813 534946.2959 13031.9196 -6242.5813
ENERGY: 280 169.0833 700.9617 2917.6141 0.0000 -185424.5130 16229.7439 454.7766 0.0000 0.0000 -164952.3333 0.0000 -164952.3333 -164952.3333 0.0000 13144.0762 -6334.6247 534946.2959 13144.0762 -6334.6247
ENERGY: 300 126.6691 639.5674 2916.2579 0.0000 -186096.7767 16446.7828 481.3808 0.0000 0.0000 -165486.1188 0.0000 -165486.1188 -165486.1188 0.0000 13208.2220 -6338.9294 534946.2959 13208.2220 -6338.9294
TCL: Setting parameter constraintScaling to 1.25
TCL: Minimizing for 100 steps
ETITLE: TS BOND ANGLE DIHED IMPRP ELECT VDW BOUNDARY MISC KINETIC TOTAL TEMP POTENTIAL TOTAL3 TEMPAVG PRESSURE GPRESSURE VOLUME PRESSAVG GPRESSAVG
ENERGY: 300 126.6691 639.5674 2916.2579 0.0000 -186096.7767 16446.7828 240.6904 0.0000 0.0000 -165726.8092 0.0000 -165726.8092 -165726.8092 0.0000 13656.5819 -26349.1479 534946.2959 13656.5819 -26349.1479
ENERGY: 320 132.1521 624.5961 2911.1487 0.0000 -186668.1280 16580.7314 272.7761 0.0000 0.0000 -166146.7237 0.0000 -166146.7237 -166146.7237 0.0000 13630.0899 -5970.4142 534946.2959 13630.0899 -5970.4142
ENERGY: 340 153.0706 625.5072 2910.7330 0.0000 -187382.9897 16813.0424 296.3938 0.0000 0.0000 -166584.2428 0.0000 -166584.2428 -166584.2428 0.0000 13646.0773 -6009.0862 534946.2959 13646.0773 -6009.0862
ENERGY: 360 177.2997 677.1503 2908.4499 0.0000 -188908.2534 17332.5822 358.4494 0.0000 0.0000 -167454.3218 0.0000 -167454.3218 -167454.3218 0.0000 13864.5436 -6003.2639 534946.2959 13864.5436 -6003.2639
ENERGY: 380 174.6293 658.0109 2901.7698 0.0000 -189882.2777 17715.2250 380.9529 0.0000 0.0000 -168051.6900 0.0000 -168051.6900 -168051.6900 0.0000 13969.0951 -5984.4365 534946.2959 13969.0951 -5984.4365
ENERGY: 400 139.1359 633.4759 2899.7898 0.0000 -190460.9293 17924.0360 394.6064 0.0000 0.0000 -168469.8853 0.0000 -168469.8853 -168469.8853 0.0000 14119.9703 -5919.6614 534946.2959 14119.9703 -5919.6614
TCL: Setting parameter constraintScaling to 0.625
TCL: Minimizing for 100 steps
ETITLE: TS BOND ANGLE DIHED IMPRP ELECT VDW BOUNDARY MISC KINETIC TOTAL TEMP POTENTIAL TOTAL3 TEMPAVG PRESSURE GPRESSURE VOLUME PRESSAVG GPRESSAVG
ENERGY: 400 139.1359 633.4759 2899.7898 0.0000 -190460.9293 17924.0360 197.3032 0.0000 0.0000 -168667.1885 0.0000 -168667.1885 -168667.1885 0.0000 14418.1024 -26606.9464 534946.2959 14418.1024 -26606.9464
ENERGY: 420 148.3890 627.0101 2895.3752 0.0000 -190860.2568 18016.4081 218.4796 0.0000 0.0000 -168954.5947 0.0000 -168954.5947 -168954.5947 0.0000 14351.0039 -5715.8073 534946.2959 14351.0039 -5715.8073
ENERGY: 440 155.3676 626.7168 2894.3913 0.0000 -191403.7038 18188.1000 235.0242 0.0000 0.0000 -169304.1039 0.0000 -169304.1039 -169304.1039 0.0000 14365.0131 -5746.8124 534946.2959 14365.0131 -5746.8124
ENERGY: 460 140.3590 641.4666 2887.0745 0.0000 -192457.8492 18553.3045 266.6435 0.0000 0.0000 -169969.0012 0.0000 -169969.0012 -169969.0012 0.0000 14572.2169 -5692.2524 534946.2959 14572.2169 -5692.2524
ENERGY: 480 142.9296 639.4643 2881.3065 0.0000 -193312.0920 18885.5254 290.1468 0.0000 0.0000 -170472.7194 0.0000 -170472.7194 -170472.7194 0.0000 14707.0827 -5654.2663 534946.2959 14707.0827 -5654.2663
ENERGY: 500 186.4862 644.2519 2884.4378 0.0000 -193959.9566 19138.9566 301.6490 0.0000 0.0000 -170804.1749 0.0000 -170804.1749 -170804.1749 0.0000 14741.2166 -5659.7515 534946.2959 14741.2166 -5659.7515
TCL: Setting parameter constraintScaling to 0.3125
TCL: Minimizing for 100 steps
ETITLE: TS BOND ANGLE DIHED IMPRP ELECT VDW BOUNDARY MISC KINETIC TOTAL TEMP POTENTIAL TOTAL3 TEMPAVG PRESSURE GPRESSURE VOLUME PRESSAVG GPRESSAVG
ENERGY: 500 186.4862 644.2519 2884.4378 0.0000 -193959.9566 19138.9566 150.8245 0.0000 0.0000 -170954.9994 0.0000 -170954.9994 -170954.9994 0.0000 14935.4245 -26913.4266 534946.2959 14935.4245 -26913.4266
ENERGY: 520 164.8767 632.9084 2876.8990 0.0000 -194240.3031 19232.0570 159.3726 0.0000 0.0000 -171174.1893 0.0000 -171174.1893 -171174.1893 0.0000 14981.6019 -5453.6148 534946.2959 14981.6019 -5453.6148
ENERGY: 540 177.8235 647.7940 2874.2558 0.0000 -194805.4142 19427.7558 174.8052 0.0000 0.0000 -171502.9798 0.0000 -171502.9798 -171502.9798 0.0000 15078.9499 -5439.1939 534946.2959 15078.9499 -5439.1939
ENERGY: 560 168.4229 642.0194 2871.7130 0.0000 -195668.4673 19752.6169 195.4508 0.0000 0.0000 -172038.2442 0.0000 -172038.2442 -172038.2442 0.0000 15159.8469 -5427.7003 534946.2959 15159.8469 -5427.7003
ENERGY: 580 157.4294 640.3540 2865.9011 0.0000 -196463.6468 20056.8633 206.4883 0.0000 0.0000 -172536.6107 0.0000 -172536.6107 -172536.6107 0.0000 15360.0701 -5343.8528 534946.2959 15360.0701 -5343.8528
ENERGY: 600 231.7553 661.7413 2860.9075 0.0000 -197529.7522 20505.7396 224.1241 0.0000 0.0000 -173045.4843 0.0000 -173045.4843 -173045.4843 0.0000 15569.4299 -5258.3957 534946.2959 15569.4299 -5258.3957
TCL: Setting parameter constraintScaling to 0.15625
TCL: Minimizing for 100 steps
ETITLE: TS BOND ANGLE DIHED IMPRP ELECT VDW BOUNDARY MISC KINETIC TOTAL TEMP POTENTIAL TOTAL3 TEMPAVG PRESSURE GPRESSURE VOLUME PRESSAVG GPRESSAVG
ENERGY: 600 231.7553 661.7413 2860.9075 0.0000 -197529.7522 20505.7396 112.0621 0.0000 0.0000 -173157.5463 0.0000 -173157.5463 -173157.5463 0.0000 15692.9690 -27001.6258 534946.2959 15692.9690 -27001.6258
ENERGY: 620 258.2457 679.3870 2863.2723 0.0000 -197745.0728 20565.6909 118.5651 0.0000 0.0000 -173259.9118 0.0000 -173259.9118 -173259.9118 0.0000 15677.5854 -5175.6698 534946.2959 15677.5854 -5175.6698
ENERGY: 640 224.4788 661.9466 2852.5150 0.0000 -198374.3418 20797.3057 130.7822 0.0000 0.0000 -173707.3136 0.0000 -173707.3136 -173707.3136 0.0000 15770.2771 -5150.1489 534946.2959 15770.2771 -5150.1489
ENERGY: 660 182.4484 671.3833 2860.2395 0.0000 -198556.8427 20848.5802 132.1085 0.0000 0.0000 -173862.0829 0.0000 -173862.0829 -173862.0829 0.0000 15781.9300 -5154.5350 534946.2959 15781.9300 -5154.5350
ENERGY: 680 167.4363 655.9288 2861.9363 0.0000 -199684.5324 21320.9356 139.7377 0.0000 0.0000 -174538.5575 0.0000 -174538.5575 -174538.5575 0.0000 16090.8756 -4995.5911 534946.2959 16090.8756 -4995.5911
ENERGY: 700 165.8768 653.7421 2846.6318 0.0000 -199944.0889 21399.9436 145.5167 0.0000 0.0000 -174732.3778 0.0000 -174732.3778 -174732.3778 0.0000 16090.5230 -5017.7386 534946.2959 16090.5230 -5017.7386
TCL: Setting parameter constraintScaling to 0.078125
TCL: Minimizing for 100 steps
ETITLE: TS BOND ANGLE DIHED IMPRP ELECT VDW BOUNDARY MISC KINETIC TOTAL TEMP POTENTIAL TOTAL3 TEMPAVG PRESSURE GPRESSURE VOLUME PRESSAVG GPRESSAVG
ENERGY: 700 165.8768 653.7421 2846.6318 0.0000 -199944.0889 21399.9436 72.7584 0.0000 0.0000 -174805.1362 0.0000 -174805.1362 -174805.1362 0.0000 16163.0963 -27115.4366 534946.2959 16163.0963 -27115.4366
ENERGY: 720 177.2443 671.0805 2845.3668 0.0000 -200346.6744 21526.7873 80.8220 0.0000 0.0000 -175045.3735 0.0000 -175045.3735 -175045.3735 0.0000 16150.6005 -4994.9942 534946.2959 16150.6005 -4994.9942
ENERGY: 740 189.2287 690.7298 2837.1063 0.0000 -200891.7283 21763.2827 88.7133 0.0000 0.0000 -175322.6676 0.0000 -175322.6676 -175322.6676 0.0000 16263.9105 -4948.5505 534946.2959 16263.9105 -4948.5505
ENERGY: 760 233.0390 708.8352 2848.1592 0.0000 -201194.6448 21828.6858 89.3064 0.0000 0.0000 -175486.6193 0.0000 -175486.6193 -175486.6193 0.0000 16315.5938 -4938.4506 534946.2959 16315.5938 -4938.4506
ENERGY: 780 241.1054 666.6738 2842.8118 0.0000 -201548.2014 22011.4657 86.6815 0.0000 0.0000 -175699.4631 0.0000 -175699.4631 -175699.4631 0.0000 16475.5697 -4832.1324 534946.2959 16475.5697 -4832.1324
ENERGY: 800 171.3754 673.2939 2844.5059 0.0000 -202099.5567 22247.0131 90.3636 0.0000 0.0000 -176073.0048 0.0000 -176073.0048 -176073.0048 0.0000 16608.1773 -4759.8855 534946.2959 16608.1773 -4759.8855
TCL: Setting parameter constraintScaling to 0.0390625
TCL: Minimizing for 100 steps
ETITLE: TS BOND ANGLE DIHED IMPRP ELECT VDW BOUNDARY MISC KINETIC TOTAL TEMP POTENTIAL TOTAL3 TEMPAVG PRESSURE GPRESSURE VOLUME PRESSAVG GPRESSAVG
ENERGY: 800 171.3754 673.2939 2844.5059 0.0000 -202099.5567 22247.0131 45.1818 0.0000 0.0000 -176118.1866 0.0000 -176118.1866 -176118.1866 0.0000 16649.6910 -27152.3678 534946.2959 16649.6910 -27152.3678
ENERGY: 820 202.7068 668.5222 2830.7258 0.0000 -202331.4357 22284.1266 48.4813 0.0000 0.0000 -176296.8729 0.0000 -176296.8729 -176296.8729 0.0000 16580.6778 -4810.5140 534946.2959 16580.6778 -4810.5140
ENERGY: 840 226.8505 702.0857 2829.7328 0.0000 -202783.2713 22486.1434 53.0560 0.0000 0.0000 -176485.4029 0.0000 -176485.4029 -176485.4029 0.0000 16650.7379 -4781.1784 534946.2959 16650.7379 -4781.1784
ENERGY: 860 202.3428 672.5091 2829.0084 0.0000 -202986.9192 22541.4413 52.5880 0.0000 0.0000 -176689.0295 0.0000 -176689.0295 -176689.0295 0.0000 16712.4011 -4747.3993 534946.2959 16712.4011 -4747.3993
ENERGY: 880 265.5651 718.9350 2844.5744 0.0000 -203579.2106 22869.0691 52.8411 0.0000 0.0000 -176828.2258 0.0000 -176828.2258 -176828.2258 0.0000 16945.3389 -4585.0609 534946.2959 16945.3389 -4585.0609
ENERGY: 900 192.2998 673.6408 2830.1263 0.0000 -204003.9039 23031.8740 55.6748 0.0000 0.0000 -177220.2881 0.0000 -177220.2881 -177220.2881 0.0000 17019.0691 -4575.6480 534946.2959 17019.0691 -4575.6480
TCL: Setting parameter constraintScaling to 0.01953125
TCL: Minimizing for 100 steps
ETITLE: TS BOND ANGLE DIHED IMPRP ELECT VDW BOUNDARY MISC KINETIC TOTAL TEMP POTENTIAL TOTAL3 TEMPAVG PRESSURE GPRESSURE VOLUME PRESSAVG GPRESSAVG
ENERGY: 900 192.2998 673.6408 2830.1263 0.0000 -204003.9039 23031.8740 27.8374 0.0000 0.0000 -177248.1255 0.0000 -177248.1255 -177248.1255 0.0000 17042.7958 -27212.6619 534946.2959 17042.7958 -27212.6619
ENERGY: 920 165.0841 657.1147 2819.7040 0.0000 -204128.4913 23051.7657 28.6761 0.0000 0.0000 -177406.1466 0.0000 -177406.1466 -177406.1466 0.0000 17026.0009 -4574.2126 534946.2959 17026.0009 -4574.2126
ENERGY: 940 209.5143 681.8955 2817.1363 0.0000 -204432.3151 23172.2956 30.7159 0.0000 0.0000 -177520.7576 0.0000 -177520.7576 -177520.7576 0.0000 17039.3258 -4595.3039 534946.2959 17039.3258 -4595.3039
ENERGY: 960 172.8525 671.4827 2816.2042 0.0000 -204628.5575 23262.7891 31.4975 0.0000 0.0000 -177673.7314 0.0000 -177673.7314 -177673.7314 0.0000 17085.3731 -4565.9048 534946.2959 17085.3731 -4565.9048
ENERGY: 980 169.4827 661.8070 2816.7446 0.0000 -204784.3843 23322.4153 31.0968 0.0000 0.0000 -177782.8379 0.0000 -177782.8379 -177782.8379 0.0000 17138.7938 -4537.4084 534946.2959 17138.7938 -4537.4084
ENERGY: 1000 180.5255 681.3855 2825.8754 0.0000 -205192.1281 23545.6461 31.5254 0.0000 0.0000 -177927.1702 0.0000 -177927.1702 -177927.1702 0.0000 17302.8889 -4428.8855 534946.2959 17302.8889 -4428.8855
TCL: Setting parameter constraintScaling to 0
TCL: Minimizing for 5000 steps
ETITLE: TS BOND ANGLE DIHED IMPRP ELECT VDW BOUNDARY MISC KINETIC TOTAL TEMP POTENTIAL TOTAL3 TEMPAVG PRESSURE GPRESSURE VOLUME PRESSAVG GPRESSAVG
ENERGY: 1000 180.5255 681.3855 2825.8754 0.0000 -205192.1281 23545.6461 0.0000 0.0000 0.0000 -177958.6956 0.0000 -177958.6956 -177958.6956 0.0000 17328.6072 -27208.7694 534946.2959 17328.6072 -27208.7694
ENERGY: 2000 168.4517 661.7477 2801.9455 0.0000 -214603.4002 27768.7936 0.0000 0.0000 0.0000 -183202.4618 0.0000 -183202.4618 -183202.4618 0.0000 19524.2699 -3257.8784 534946.2959 19524.2699 -3257.8784
ENERGY: 3000 167.4378 663.6827 2792.7229 0.0000 -217488.7622 28931.1153 0.0000 0.0000 0.0000 -184933.8034 0.0000 -184933.8034 -184933.8034 0.0000 20140.7349 -2945.5714 534946.2959 20140.7349 -2945.5714
ENERGY: 4000 165.8859 663.6464 2786.5725 0.0000 -218714.4453 29433.3717 0.0000 0.0000 0.0000 -185664.9688 0.0000 -185664.9688 -185664.9688 0.0000 20408.2822 -2812.1472 534946.2959 20408.2822 -2812.1472
ENERGY: 5000 165.7343 663.7887 2786.1213 0.0000 -219359.9392 29703.1955 0.0000 0.0000 0.0000 -186041.0994 0.0000 -186041.0994 -186041.0994 0.0000 20542.3360 -2739.2293 534946.2959 20542.3360 -2739.2293
ENERGY: 6000 166.4419 666.0593 2786.4988 0.0000 -219764.6241 29794.1855 0.0000 0.0000 0.0000 -186351.4386 0.0000 -186351.4386 -186351.4386 0.0000 20587.6381 -2729.2960 534946.2959 20587.6381 -2729.2960
