Info: SIMULATION PARAMETERS:
Info: TIMESTEP               2
Info: NUMBER OF STEPS        0
Info: STEPS PER CYCLE        10
Info: PERIODIC CELL BASIS 1  72.449 0 0
Info: PERIODIC CELL BASIS 2  0 93.247 0
Info: PERIODIC CELL BASIS 3  0 0 79.185
Info: PERIODIC CELL CENTER   -0.248 -0.156 -0.047
Info: WRAPPING WATERS AROUND PERIODIC BOUNDARIES ON OUTPUT.
Info: WRAPPING ALL CLUSTERS AROUND PERIODIC BOUNDARIES ON OUTPUT.
Info: FIRST LDB TIMESTEP     50
Info: LAST LDB TIMESTEP     -1
Info: HOM BACKGROUND SCALING 1
Info: PME BACKGROUND SCALING 1
Info: MIN ATOMS PER PATCH    40
Info: INITIAL TEMPERATURE    0
Info: CENTER OF MASS MOVING INITIALLY? NO
Info: DIELECTRIC             1
Info: EXCLUDE                SCALED ONE-FOUR
Info: 1-4 ELECTROSTATICS SCALED BY 0.833333
Info: MODIFIED 1-4 VDW PARAMETERS WILL BE USED
Info: NO DCD TRAJECTORY OUTPUT
Info: NO EXTENDED SYSTEM TRAJECTORY OUTPUT
Info: NO VELOCITY DCD OUTPUT
Info: NO FORCE DCD OUTPUT
Info: OUTPUT FILENAME        ../replicas/rep102/equilibration/eq0
Info: NO RESTART FILE
Info: SWITCHING ACTIVE
Info: SWITCHING ON           10
Info: SWITCHING OFF          12
Info: PAIRLIST DISTANCE      13.5
Info: PAIRLIST SHRINK RATE   0.01
Info: PAIRLIST GROW RATE     0.01
Info: PAIRLIST TRIGGER       0.3
Info: PAIRLISTS PER CYCLE    2
Info: PAIRLISTS ENABLED
Info: MARGIN                 0
Info: HYDROGEN GROUP CUTOFF  2.5
Info: PATCH DIMENSION        16
Info: ENERGY OUTPUT STEPS    500
Info: CROSSTERM ENERGY INCLUDED IN DIHEDRAL
Info: TIMING OUTPUT STEPS    5000
Info: PRESSURE OUTPUT STEPS  500
Info: HARMONIC CONSTRAINTS ACTIVE
Info: HARMONIC CONS EXP      2
Info: HARMONIC CONS SCALING  10
Info: CONJUGATE GRADIENT MINIMIZATION ACTIVE
Info: LINE MINIMIZATION GOAL = 0.001
Info: BABY STEP SIZE = 0.01
Info: TINY STEP SIZE = 1e-06
Info: PARTICLE MESH EWALD (PME) ACTIVE
Info: PME TOLERANCE               1e-06
Info: PME EWALD COEFFICIENT       0.257952
Info: PME INTERPOLATION ORDER     4
Info: PME GRID DIMENSIONS         80 96 80
Info: PME MAXIMUM GRID SPACING    1
Info: FULL ELECTROSTATIC EVALUATION FREQUENCY      2
Info: USING VERLET I (r-RESPA) MTS SCHEME.
Info: C1 SPLITTING OF LONG RANGE ELECTROSTATICS
Info: PLACING ATOMS IN PATCHES BY HYDROGEN GROUPS
Info: RIGID BONDS TO HYDROGEN : ALL
Info:         ERROR TOLERANCE : 1e-05
Info:          MAX ITERATIONS : 100
Info: RIGID WATER USING SETTLE ALGORITHM
Info: RANDOM NUMBER SEED     1503700994
Info: USE HYDROGEN BONDS?    NO
Info: Using AMBER format force field!
Info: AMBER PARM FILE        ../build/complex.top
Info: COORDINATE PDB         ../build/complex.pdb
Info: Exclusions in PARM file will be ignored!
Info: SCNB (VDW SCALING)     2
Info: USING ARITHMETIC MEAN TO COMBINE L-J SIGMA PARAMETERS
Info: SUMMARY OF PARAMETERS:
Info: 71 BONDS
Info: 145 ANGLES
Info:   145 HARMONIC
Info:   0 COSINE-BASED
Info: 76 DIHEDRAL
Info: 0 IMPROPER
Info: 0 CROSSTERM
Info: 0 VDW
Info: 190 VDW_PAIRS
Info: 0 NBTHOLE_PAIRS
Info: STRUCTURE SUMMARY:
Info: 49394 ATOMS
Info: 49448 BONDS
Info: 8698 ANGLES
Info: 18780 DIHEDRALS
Info: 0 IMPROPERS
Info: 0 CROSSTERMS
Info: 0 EXCLUSIONS
Info: 2336 CONSTRAINTS
Info: 47058 RIGID BONDS
Info: 101124 DEGREES OF FREEDOM
Info: 17225 HYDROGEN GROUPS
Info: 4 ATOMS IN LARGEST HYDROGEN GROUP
Info: 17225 MIGRATION GROUPS
Info: 4 ATOMS IN LARGEST MIGRATION GROUP
Info: TOTAL MASS = 301478 amu
Info: TOTAL CHARGE = 1.00115e-05 e
Info: MASS DENSITY = 0.935846 g/cm^3
Info: ATOM DENSITY = 0.0923345 atoms/A^3
Info: ADDED 70656 IMPLICIT EXCLUSIONS
Info: NONBONDED TABLE R-SQUARED SPACING: 0.0625
Info: NONBONDED TABLE SIZE: 769 POINTS
Info: REMOVING COM VELOCITY 0 0 0
TCL: Minimizing for 100 steps
ETITLE: TS BOND ANGLE DIHED IMPRP ELECT VDW BOUNDARY MISC KINETIC TOTAL TEMP POTENTIAL TOTAL3 TEMPAVG PRESSURE GPRESSURE VOLUME PRESSAVG GPRESSAVG
ENERGY: 0 155.4176 1012.2698 2855.7272 0.0000 -154496.7911 207729.2052 0.0468 0.0000 0.0000 57255.8755 0.0000 57255.8755 57255.8755 0.0000 116350.2532 86546.1670 534946.2959 116350.2532 86546.1670
ENERGY: 20 304.7559 935.7912 2893.4663 0.0000 -158672.9411 17936.6591 143.9455 0.0000 0.0000 -136458.3231 0.0000 -136458.3231 -136458.3231 0.0000 16523.9384 -239.4562 534946.2959 16523.9384 -239.4562
ENERGY: 40 198.7454 799.5729 2896.9273 0.0000 -162811.4523 16417.9539 221.3030 0.0000 0.0000 -142276.9498 0.0000 -142276.9498 -142276.9498 0.0000 15011.2705 -2135.4696 534946.2959 15011.2705 -2135.4696
ENERGY: 60 130.5282 715.3440 2898.2166 0.0000 -167496.1568 15446.7539 315.2796 0.0000 0.0000 -147990.0345 0.0000 -147990.0345 -147990.0345 0.0000 13793.8837 -3799.3986 534946.2959 13793.8837 -3799.3986
ENERGY: 80 431.2717 765.6305 2904.3787 0.0000 -169937.5301 15121.1523 372.0123 0.0000 0.0000 -150343.0846 0.0000 -150343.0846 -150343.0846 0.0000 13270.3306 -4577.2448 534946.2959 13270.3306 -4577.2448
ENERGY: 100 119.3852 710.0600 2905.2591 0.0000 -171259.7120 14991.7870 387.3613 0.0000 0.0000 -152145.8594 0.0000 -152145.8594 -152145.8594 0.0000 13056.2654 -4908.1721 534946.2959 13056.2654 -4908.1721
TCL: Setting parameter constraintScaling to 5.0
TCL: Minimizing for 100 steps
ETITLE: TS BOND ANGLE DIHED IMPRP ELECT VDW BOUNDARY MISC KINETIC TOTAL TEMP POTENTIAL TOTAL3 TEMPAVG PRESSURE GPRESSURE VOLUME PRESSAVG GPRESSAVG
ENERGY: 100 119.3852 710.0600 2905.2591 0.0000 -171259.7120 14991.7870 193.6807 0.0000 0.0000 -152339.5401 0.0000 -152339.5401 -152339.5401 0.0000 13672.7716 -23021.8183 534946.2959 13672.7716 -23021.8183
ENERGY: 120 108.8836 687.5844 2912.9267 0.0000 -172865.8850 14798.2706 281.1918 0.0000 0.0000 -154077.0279 0.0000 -154077.0279 -154077.0279 0.0000 13218.2543 -4906.0174 534946.2959 13218.2543 -4906.0174
ENERGY: 140 309.4352 708.8690 2913.8025 0.0000 -174236.6521 14731.4825 326.6388 0.0000 0.0000 -155246.4241 0.0000 -155246.4241 -155246.4241 0.0000 12971.5287 -5303.2389 534946.2959 12971.5287 -5303.2389
ENERGY: 160 265.2032 683.1058 2923.1721 0.0000 -176275.0902 14757.3217 382.8800 0.0000 0.0000 -157263.4073 0.0000 -157263.4073 -157263.4073 0.0000 12740.9901 -5734.8338 534946.2959 12740.9901 -5734.8338
ENERGY: 180 268.9135 744.0950 2928.5661 0.0000 -178995.1618 15023.4735 473.2896 0.0000 0.0000 -159556.8242 0.0000 -159556.8242 -159556.8242 0.0000 12521.6169 -6215.5566 534946.2959 12521.6169 -6215.5566
ENERGY: 200 238.8788 694.0940 2941.3613 0.0000 -181556.1487 15587.0245 546.2640 0.0000 0.0000 -161548.5260 0.0000 -161548.5260 -161548.5260 0.0000 12582.6428 -6422.4589 534946.2959 12582.6428 -6422.4589
TCL: Setting parameter constraintScaling to 2.5
TCL: Minimizing for 100 steps
ETITLE: TS BOND ANGLE DIHED IMPRP ELECT VDW BOUNDARY MISC KINETIC TOTAL TEMP POTENTIAL TOTAL3 TEMPAVG PRESSURE GPRESSURE VOLUME PRESSAVG GPRESSAVG
ENERGY: 200 238.8788 694.0940 2941.3613 0.0000 -181556.1487 15587.0245 273.1320 0.0000 0.0000 -161821.6581 0.0000 -161821.6581 -161821.6581 0.0000 13229.5476 -25653.2543 534946.2959 13229.5476 -25653.2543
ENERGY: 220 246.7079 677.8017 2933.0073 0.0000 -182076.8536 15471.7879 337.7159 0.0000 0.0000 -162409.8327 0.0000 -162409.8327 -162409.8327 0.0000 12971.3456 -6088.3278 534946.2959 12971.3456 -6088.3278
ENERGY: 240 115.5979 674.4921 2928.4530 0.0000 -182573.0688 15510.9858 345.0277 0.0000 0.0000 -162998.5124 0.0000 -162998.5124 -162998.5124 0.0000 13036.6025 -6114.8118 534946.2959 13036.6025 -6114.8118
ENERGY: 260 144.9407 676.5022 2920.8577 0.0000 -184117.3159 15842.1931 391.7630 0.0000 0.0000 -164141.0592 0.0000 -164141.0592 -164141.0592 0.0000 13045.2529 -6255.7725 534946.2959 13045.2529 -6255.7725
ENERGY: 280 172.1549 701.3462 2917.6172 0.0000 -185430.5729 16231.8701 455.1526 0.0000 0.0000 -164952.4318 0.0000 -164952.4318 -164952.4318 0.0000 13144.2255 -6336.8317 534946.2959 13144.2255 -6336.8317
ENERGY: 300 126.6640 639.5716 2916.2563 0.0000 -186097.1525 16446.8906 481.3974 0.0000 0.0000 -165486.3726 0.0000 -165486.3726 -165486.3726 0.0000 13208.2516 -6340.5254 534946.2959 13208.2516 -6340.5254
TCL: Setting parameter constraintScaling to 1.25
TCL: Minimizing for 100 steps
ETITLE: TS BOND ANGLE DIHED IMPRP ELECT VDW BOUNDARY MISC KINETIC TOTAL TEMP POTENTIAL TOTAL3 TEMPAVG PRESSURE GPRESSURE VOLUME PRESSAVG GPRESSAVG
ENERGY: 300 126.6640 639.5716 2916.2563 0.0000 -186097.1525 16446.8906 240.6987 0.0000 0.0000 -165727.0713 0.0000 -165727.0713 -165727.0713 0.0000 13656.6190 -26350.7868 534946.2959 13656.6190 -26350.7868
ENERGY: 320 132.0832 624.5906 2911.1465 0.0000 -186668.3332 16580.7882 272.7801 0.0000 0.0000 -166146.9446 0.0000 -166146.9446 -166146.9446 0.0000 13630.0678 -5972.0446 534946.2959 13630.0678 -5972.0446
ENERGY: 340 150.4878 624.6545 2910.6362 0.0000 -187379.6965 16812.1614 296.0588 0.0000 0.0000 -166585.6978 0.0000 -166585.6978 -166585.6978 0.0000 13648.9257 -6008.5584 534946.2959 13648.9257 -6008.5584
ENERGY: 360 313.8236 691.6991 2906.9256 0.0000 -189041.2727 17382.9746 362.2506 0.0000 0.0000 -167383.5994 0.0000 -167383.5994 -167383.5994 0.0000 13882.6304 -6004.1685 534946.2959 13882.6304 -6004.1685
ENERGY: 380 253.8651 669.6645 2903.1608 0.0000 -189992.4010 17759.6973 383.9160 0.0000 0.0000 -168022.0973 0.0000 -168022.0973 -168022.0973 0.0000 13969.8005 -5995.0962 534946.2959 13969.8005 -5995.0962
ENERGY: 400 139.6134 633.6464 2899.7884 0.0000 -190451.5695 17919.7123 394.0308 0.0000 0.0000 -168464.7783 0.0000 -168464.7783 -168464.7783 0.0000 14118.8536 -5921.3661 534946.2959 14118.8536 -5921.3661
TCL: Setting parameter constraintScaling to 0.625
TCL: Minimizing for 100 steps
ETITLE: TS BOND ANGLE DIHED IMPRP ELECT VDW BOUNDARY MISC KINETIC TOTAL TEMP POTENTIAL TOTAL3 TEMPAVG PRESSURE GPRESSURE VOLUME PRESSAVG GPRESSAVG
ENERGY: 400 139.6134 633.6464 2899.7884 0.0000 -190451.5695 17919.7123 197.0154 0.0000 0.0000 -168661.7937 0.0000 -168661.7937 -168661.7937 0.0000 14416.7059 -26607.8724 534946.2959 14416.7059 -26607.8724
ENERGY: 420 148.1545 626.6957 2895.4533 0.0000 -190843.2762 18010.5175 217.8432 0.0000 0.0000 -168944.6120 0.0000 -168944.6120 -168944.6120 0.0000 14349.7038 -5717.0249 534946.2959 14349.7038 -5717.0249
ENERGY: 440 153.7349 626.4886 2894.1343 0.0000 -191390.0985 18182.6168 234.6939 0.0000 0.0000 -169298.4301 0.0000 -169298.4301 -169298.4301 0.0000 14365.4397 -5747.9940 534946.2959 14365.4397 -5747.9940
ENERGY: 460 193.2520 650.3308 2887.1517 0.0000 -192597.9915 18606.7046 270.7452 0.0000 0.0000 -169989.8073 0.0000 -169989.8073 -169989.8073 0.0000 14580.5750 -5697.3661 534946.2959 14580.5750 -5697.3661
ENERGY: 480 160.2895 649.5205 2882.9120 0.0000 -193432.3269 18934.4680 293.4217 0.0000 0.0000 -170511.7153 0.0000 -170511.7153 -170511.7153 0.0000 14735.1506 -5640.3084 534946.2959 14735.1506 -5640.3084
ENERGY: 500 167.9994 641.2229 2884.3810 0.0000 -193944.7196 19133.8028 302.0380 0.0000 0.0000 -170815.2755 0.0000 -170815.2755 -170815.2755 0.0000 14744.0110 -5658.5105 534946.2959 14744.0110 -5658.5105
TCL: Setting parameter constraintScaling to 0.3125
TCL: Minimizing for 100 steps
ETITLE: TS BOND ANGLE DIHED IMPRP ELECT VDW BOUNDARY MISC KINETIC TOTAL TEMP POTENTIAL TOTAL3 TEMPAVG PRESSURE GPRESSURE VOLUME PRESSAVG GPRESSAVG
ENERGY: 500 167.9994 641.2229 2884.3810 0.0000 -193944.7196 19133.8028 151.0190 0.0000 0.0000 -170966.2945 0.0000 -170966.2945 -170966.2945 0.0000 14938.3735 -26909.2304 534946.2959 14938.3735 -26909.2304
ENERGY: 520 147.0492 652.6328 2877.7828 0.0000 -194131.4391 19194.9990 156.2875 0.0000 0.0000 -171102.6878 0.0000 -171102.6878 -171102.6878 0.0000 15034.3529 -5421.5688 534946.2959 15034.3529 -5421.5688
ENERGY: 540 153.9884 651.5364 2872.6303 0.0000 -194780.6168 19420.2704 176.4223 0.0000 0.0000 -171505.7690 0.0000 -171505.7690 -171505.7690 0.0000 15091.7454 -5432.1934 534946.2959 15091.7454 -5432.1934
ENERGY: 560 208.2695 662.8677 2879.1877 0.0000 -195608.0490 19736.5069 194.3277 0.0000 0.0000 -171926.8894 0.0000 -171926.8894 -171926.8894 0.0000 15131.3659 -5442.0553 534946.2959 15131.3659 -5442.0553
ENERGY: 580 386.2730 750.1664 2866.8393 0.0000 -195874.7841 19846.4697 198.7059 0.0000 0.0000 -171826.3298 0.0000 -171826.3298 -171826.3298 0.0000 15244.1427 -5409.0093 534946.2959 15244.1427 -5409.0093
ENERGY: 600 170.5553 648.6131 2866.6637 0.0000 -196182.5234 19947.3596 205.3359 0.0000 0.0000 -172343.9957 0.0000 -172343.9957 -172343.9957 0.0000 15269.8841 -5398.1938 534946.2959 15269.8841 -5398.1938
TCL: Setting parameter constraintScaling to 0.15625
TCL: Minimizing for 100 steps
ETITLE: TS BOND ANGLE DIHED IMPRP ELECT VDW BOUNDARY MISC KINETIC TOTAL TEMP POTENTIAL TOTAL3 TEMPAVG PRESSURE GPRESSURE VOLUME PRESSAVG GPRESSAVG
ENERGY: 600 170.5553 648.6131 2866.6637 0.0000 -196182.5234 19947.3596 102.6680 0.0000 0.0000 -172446.6637 0.0000 -172446.6637 -172446.6637 0.0000 15386.5202 -26985.0149 534946.2959 15386.5202 -26985.0149
ENERGY: 620 151.5446 644.7152 2867.0132 0.0000 -196482.8410 20056.7894 106.6136 0.0000 0.0000 -172656.1648 0.0000 -172656.1648 -172656.1648 0.0000 15459.3542 -5245.8865 534946.2959 15459.3542 -5245.8865
ENERGY: 640 265.8693 692.9675 2865.1099 0.0000 -197357.8460 20375.7919 122.5536 0.0000 0.0000 -173035.5537 0.0000 -173035.5537 -173035.5537 0.0000 15559.3821 -5255.2851 534946.2959 15559.3821 -5255.2851
ENERGY: 660 155.3190 650.5636 2858.6756 0.0000 -197681.2543 20502.8139 124.4170 0.0000 0.0000 -173389.4651 0.0000 -173389.4651 -173389.4651 0.0000 15647.2922 -5192.8543 534946.2959 15647.2922 -5192.8543
ENERGY: 680 183.8929 683.5874 2866.0842 0.0000 -198276.5910 20746.9473 129.7996 0.0000 0.0000 -173666.2796 0.0000 -173666.2796 -173666.2796 0.0000 15788.7016 -5130.1692 534946.2959 15788.7016 -5130.1692
ENERGY: 700 159.8353 651.4824 2846.6988 0.0000 -199772.5282 21350.8676 151.6684 0.0000 0.0000 -174611.9757 0.0000 -174611.9757 -174611.9757 0.0000 16057.1449 -5032.3537 534946.2959 16057.1449 -5032.3537
TCL: Setting parameter constraintScaling to 0.078125
TCL: Minimizing for 100 steps
ETITLE: TS BOND ANGLE DIHED IMPRP ELECT VDW BOUNDARY MISC KINETIC TOTAL TEMP POTENTIAL TOTAL3 TEMPAVG PRESSURE GPRESSURE VOLUME PRESSAVG GPRESSAVG
ENERGY: 700 159.8353 651.4824 2846.6988 0.0000 -199772.5282 21350.8676 75.8342 0.0000 0.0000 -174687.8099 0.0000 -174687.8099 -174687.8099 0.0000 16131.3919 -27096.1893 534946.2959 16131.3919 -27096.1893
ENERGY: 720 156.5925 655.2429 2842.0497 0.0000 -199884.0803 21384.3828 77.5816 0.0000 0.0000 -174768.2308 0.0000 -174768.2308 -174768.2308 0.0000 16119.3303 -4979.3956 534946.2959 16119.3303 -4979.3956
ENERGY: 740 174.6683 665.3316 2841.7491 0.0000 -200260.6753 21508.5972 81.9599 0.0000 0.0000 -174988.3691 0.0000 -174988.3691 -174988.3691 0.0000 16165.5331 -4974.4188 534946.2959 16165.5331 -4974.4188
ENERGY: 760 262.8724 716.4897 2842.7962 0.0000 -200563.3486 21623.9017 83.4977 0.0000 0.0000 -175033.7909 0.0000 -175033.7909 -175033.7909 0.0000 16206.4582 -4971.6322 534946.2959 16206.4582 -4971.6322
ENERGY: 780 169.4530 651.4834 2838.4646 0.0000 -200838.1027 21711.3432 85.6849 0.0000 0.0000 -175381.6737 0.0000 -175381.6737 -175381.6737 0.0000 16291.4678 -4927.5054 534946.2959 16291.4678 -4927.5054
ENERGY: 800 181.8329 667.2945 2829.8045 0.0000 -201772.6708 22088.4240 95.7147 0.0000 0.0000 -175909.6001 0.0000 -175909.6001 -175909.6001 0.0000 16449.9094 -4879.4694 534946.2959 16449.9094 -4879.4694
TCL: Setting parameter constraintScaling to 0.0390625
TCL: Minimizing for 100 steps
ETITLE: TS BOND ANGLE DIHED IMPRP ELECT VDW BOUNDARY MISC KINETIC TOTAL TEMP POTENTIAL TOTAL3 TEMPAVG PRESSURE GPRESSURE VOLUME PRESSAVG GPRESSAVG
ENERGY: 800 181.8329 667.2945 2829.8045 0.0000 -201772.6708 22088.4240 47.8573 0.0000 0.0000 -175957.4575 0.0000 -175957.4575 -175957.4575 0.0000 16492.4129 -27218.5547 534946.2959 16492.4129 -27218.5547
ENERGY: 820 167.1129 651.1700 2829.8178 0.0000 -201917.1620 22126.6212 48.0768 0.0000 0.0000 -176094.3632 0.0000 -176094.3632 -176094.3632 0.0000 16530.2388 -4817.2532 534946.2959 16530.2388 -4817.2532
ENERGY: 840 164.3721 655.3466 2830.8670 0.0000 -202097.6596 22207.1599 48.9433 0.0000 0.0000 -176190.9706 0.0000 -176190.9706 -176190.9706 0.0000 16550.5935 -4805.7970 534946.2959 16550.5935 -4805.7970
ENERGY: 860 169.8174 655.3158 2825.1819 0.0000 -202497.6631 22352.8162 51.3037 0.0000 0.0000 -176443.2281 0.0000 -176443.2281 -176443.2281 0.0000 16633.9569 -4779.8888 534946.2959 16633.9569 -4779.8888
ENERGY: 880 287.9438 682.1226 2827.4982 0.0000 -202862.5241 22503.2749 52.7399 0.0000 0.0000 -176508.9447 0.0000 -176508.9447 -176508.9447 0.0000 16727.7499 -4724.8620 534946.2959 16727.7499 -4724.8620
ENERGY: 900 164.7559 659.9100 2823.2476 0.0000 -203550.0847 22791.8482 56.2868 0.0000 0.0000 -177054.0361 0.0000 -177054.0361 -177054.0361 0.0000 16834.0350 -4689.8783 534946.2959 16834.0350 -4689.8783
TCL: Setting parameter constraintScaling to 0.01953125
TCL: Minimizing for 100 steps
ETITLE: TS BOND ANGLE DIHED IMPRP ELECT VDW BOUNDARY MISC KINETIC TOTAL TEMP POTENTIAL TOTAL3 TEMPAVG PRESSURE GPRESSURE VOLUME PRESSAVG GPRESSAVG
ENERGY: 900 164.7559 659.9100 2823.2476 0.0000 -203550.0847 22791.8482 28.1434 0.0000 0.0000 -177082.1795 0.0000 -177082.1795 -177082.1795 0.0000 16857.6950 -27276.4418 534946.2959 16857.6950 -27276.4418
ENERGY: 920 279.5166 698.0530 2814.5802 0.0000 -203925.5310 22971.4019 29.6213 0.0000 0.0000 -177132.3580 0.0000 -177132.3580 -177132.3580 0.0000 16927.1249 -4656.6580 534946.2959 16927.1249 -4656.6580
ENERGY: 940 225.2561 671.1940 2816.0431 0.0000 -204105.5781 23027.1710 29.8512 0.0000 0.0000 -177336.0627 0.0000 -177336.0627 -177336.0627 0.0000 16987.5055 -4615.8857 534946.2959 16987.5055 -4615.8857
ENERGY: 960 166.0882 657.4368 2817.1174 0.0000 -204478.4825 23186.3644 30.8310 0.0000 0.0000 -177620.6447 0.0000 -177620.6447 -177620.6447 0.0000 17080.3941 -4565.2575 534946.2959 17080.3941 -4565.2575
ENERGY: 980 165.0804 653.9256 2811.6479 0.0000 -204623.5205 23246.4789 31.3308 0.0000 0.0000 -177715.0569 0.0000 -177715.0569 -177715.0569 0.0000 17100.3584 -4558.2115 534946.2959 17100.3584 -4558.2115
ENERGY: 1000 171.5818 669.0628 2811.3866 0.0000 -204922.8418 23401.4077 32.5988 0.0000 0.0000 -177836.8042 0.0000 -177836.8042 -177836.8042 0.0000 17156.4323 -4526.7813 534946.2959 17156.4323 -4526.7813
TCL: Setting parameter constraintScaling to 0
TCL: Minimizing for 5000 steps
ETITLE: TS BOND ANGLE DIHED IMPRP ELECT VDW BOUNDARY MISC KINETIC TOTAL TEMP POTENTIAL TOTAL3 TEMPAVG PRESSURE GPRESSURE VOLUME PRESSAVG GPRESSAVG
ENERGY: 1000 171.5818 669.0628 2811.3866 0.0000 -204922.8418 23401.4077 0.0000 0.0000 0.0000 -177869.4031 0.0000 -177869.4031 -177869.4031 0.0000 17182.4093 -27278.1089 534946.2959 17182.4093 -27278.1089
ENERGY: 2000 168.3455 662.8852 2800.6352 0.0000 -214760.8136 27817.8739 0.0000 0.0000 0.0000 -183311.0738 0.0000 -183311.0738 -183311.0738 0.0000 19552.6111 -3250.9248 534946.2959 19552.6111 -3250.9248
ENERGY: 3000 169.1168 669.3491 2792.7361 0.0000 -217521.0670 28913.4333 0.0000 0.0000 0.0000 -184976.4317 0.0000 -184976.4317 -184976.4317 0.0000 20120.5736 -2689.8706 534946.2959 20120.5736 -2689.8706
ENERGY: 4000 167.4761 669.6414 2786.0532 0.0000 -218676.8393 29377.1864 0.0000 0.0000 0.0000 -185676.4822 0.0000 -185676.4822 -185676.4822 0.0000 20365.4707 -2563.8566 534946.2959 20365.4707 -2563.8566
ENERGY: 5000 166.2701 667.2909 2783.5798 0.0000 -219410.1995 29644.1829 0.0000 0.0000 0.0000 -186148.8758 0.0000 -186148.8758 -186148.8758 0.0000 20505.6832 -2488.9471 534946.2959 20505.6832 -2488.9471
ENERGY: 6000 165.6869 669.4822 2784.0719 0.0000 -219813.9520 29755.4831 0.0000 0.0000 0.0000 -186439.2279 0.0000 -186439.2279 -186439.2279 0.0000 20563.2780 -2471.9234 534946.2959 20563.2780 -2471.9234
