Info: SIMULATION PARAMETERS:
Info: TIMESTEP               2
Info: NUMBER OF STEPS        0
Info: STEPS PER CYCLE        10
Info: PERIODIC CELL BASIS 1  72.449 0 0
Info: PERIODIC CELL BASIS 2  0 93.247 0
Info: PERIODIC CELL BASIS 3  0 0 79.185
Info: PERIODIC CELL CENTER   -0.248 -0.156 -0.047
Info: WRAPPING WATERS AROUND PERIODIC BOUNDARIES ON OUTPUT.
Info: WRAPPING ALL CLUSTERS AROUND PERIODIC BOUNDARIES ON OUTPUT.
Info: FIRST LDB TIMESTEP     50
Info: LAST LDB TIMESTEP     -1
Info: HOM BACKGROUND SCALING 1
Info: PME BACKGROUND SCALING 1
Info: MIN ATOMS PER PATCH    40
Info: INITIAL TEMPERATURE    0
Info: CENTER OF MASS MOVING INITIALLY? NO
Info: DIELECTRIC             1
Info: EXCLUDE                SCALED ONE-FOUR
Info: 1-4 ELECTROSTATICS SCALED BY 0.833333
Info: MODIFIED 1-4 VDW PARAMETERS WILL BE USED
Info: NO DCD TRAJECTORY OUTPUT
Info: NO EXTENDED SYSTEM TRAJECTORY OUTPUT
Info: NO VELOCITY DCD OUTPUT
Info: NO FORCE DCD OUTPUT
Info: OUTPUT FILENAME        ../replicas/rep123/equilibration/eq0
Info: NO RESTART FILE
Info: SWITCHING ACTIVE
Info: SWITCHING ON           10
Info: SWITCHING OFF          12
Info: PAIRLIST DISTANCE      13.5
Info: PAIRLIST SHRINK RATE   0.01
Info: PAIRLIST GROW RATE     0.01
Info: PAIRLIST TRIGGER       0.3
Info: PAIRLISTS PER CYCLE    2
Info: PAIRLISTS ENABLED
Info: MARGIN                 0
Info: HYDROGEN GROUP CUTOFF  2.5
Info: PATCH DIMENSION        16
Info: ENERGY OUTPUT STEPS    500
Info: CROSSTERM ENERGY INCLUDED IN DIHEDRAL
Info: TIMING OUTPUT STEPS    5000
Info: PRESSURE OUTPUT STEPS  500
Info: HARMONIC CONSTRAINTS ACTIVE
Info: HARMONIC CONS EXP      2
Info: HARMONIC CONS SCALING  10
Info: CONJUGATE GRADIENT MINIMIZATION ACTIVE
Info: LINE MINIMIZATION GOAL = 0.001
Info: BABY STEP SIZE = 0.01
Info: TINY STEP SIZE = 1e-06
Info: PARTICLE MESH EWALD (PME) ACTIVE
Info: PME TOLERANCE               1e-06
Info: PME EWALD COEFFICIENT       0.257952
Info: PME INTERPOLATION ORDER     4
Info: PME GRID DIMENSIONS         80 96 80
Info: PME MAXIMUM GRID SPACING    1
Info: FULL ELECTROSTATIC EVALUATION FREQUENCY      2
Info: USING VERLET I (r-RESPA) MTS SCHEME.
Info: C1 SPLITTING OF LONG RANGE ELECTROSTATICS
Info: PLACING ATOMS IN PATCHES BY HYDROGEN GROUPS
Info: RIGID BONDS TO HYDROGEN : ALL
Info:         ERROR TOLERANCE : 1e-05
Info:          MAX ITERATIONS : 100
Info: RIGID WATER USING SETTLE ALGORITHM
Info: RANDOM NUMBER SEED     1503693032
Info: USE HYDROGEN BONDS?    NO
Info: Using AMBER format force field!
Info: AMBER PARM FILE        ../build/complex.top
Info: COORDINATE PDB         ../build/complex.pdb
Info: Exclusions in PARM file will be ignored!
Info: SCNB (VDW SCALING)     2
Info: USING ARITHMETIC MEAN TO COMBINE L-J SIGMA PARAMETERS
Info: SUMMARY OF PARAMETERS:
Info: 71 BONDS
Info: 145 ANGLES
Info: 76 DIHEDRAL
Info: 0 IMPROPER
Info: 0 CROSSTERM
Info: 0 VDW
Info: 190 VDW_PAIRS
Info: 0 NBTHOLE_PAIRS
Info: STRUCTURE SUMMARY:
Info: 49394 ATOMS
Info: 49448 BONDS
Info: 8698 ANGLES
Info: 18780 DIHEDRALS
Info: 0 IMPROPERS
Info: 0 CROSSTERMS
Info: 0 EXCLUSIONS
Info: 2336 CONSTRAINTS
Info: 47058 RIGID BONDS
Info: 101124 DEGREES OF FREEDOM
Info: 17225 HYDROGEN GROUPS
Info: 4 ATOMS IN LARGEST HYDROGEN GROUP
Info: 17225 MIGRATION GROUPS
Info: 4 ATOMS IN LARGEST MIGRATION GROUP
Info: TOTAL MASS = 301478 amu
Info: TOTAL CHARGE = 1.00115e-05 e
Info: MASS DENSITY = 0.935846 g/cm^3
Info: ATOM DENSITY = 0.0923345 atoms/A^3
Info: ADDED 70656 IMPLICIT EXCLUSIONS
Info: NONBONDED TABLE R-SQUARED SPACING: 0.0625
Info: NONBONDED TABLE SIZE: 769 POINTS
Info: REMOVING COM VELOCITY 0 0 0
TCL: Minimizing for 100 steps
ETITLE: TS BOND ANGLE DIHED IMPRP ELECT VDW BOUNDARY MISC KINETIC TOTAL TEMP POTENTIAL TOTAL3 TEMPAVG PRESSURE GPRESSURE VOLUME PRESSAVG GPRESSAVG
ENERGY: 0 155.4176 1012.2698 2855.7272 0.0000 -154496.7911 207729.2052 0.0468 0.0000 0.0000 57255.8755 0.0000 57255.8755 57255.8755 0.0000 116350.2532 86546.1670 534946.2959 116350.2532 86546.1670
ENERGY: 20 304.7529 935.7909 2893.4663 0.0000 -158672.9391 17936.6602 143.9453 0.0000 0.0000 -136458.3234 0.0000 -136458.3234 -136458.3234 0.0000 16523.9396 -239.4548 534946.2959 16523.9396 -239.4548
ENERGY: 40 198.7427 799.5724 2896.9273 0.0000 -162811.4548 16417.9532 221.3030 0.0000 0.0000 -142276.9562 0.0000 -142276.9562 -142276.9562 0.0000 15011.2698 -2135.4704 534946.2959 15011.2698 -2135.4704
ENERGY: 60 130.5284 715.3440 2898.2166 0.0000 -167496.1586 15446.7537 315.2796 0.0000 0.0000 -147990.0364 0.0000 -147990.0364 -147990.0364 0.0000 13793.8834 -3799.3992 534946.2959 13793.8834 -3799.3992
ENERGY: 80 431.2765 765.6314 2904.3784 0.0000 -169937.5319 15121.1521 372.0122 0.0000 0.0000 -150343.0813 0.0000 -150343.0813 -150343.0813 0.0000 13270.3300 -4577.2468 534946.2959 13270.3300 -4577.2468
ENERGY: 100 119.3872 710.0600 2905.2589 0.0000 -171259.7173 14991.7867 387.3612 0.0000 0.0000 -152145.8633 0.0000 -152145.8633 -152145.8633 0.0000 13056.2647 -4908.1740 534946.2959 13056.2647 -4908.1740
TCL: Setting parameter constraintScaling to 5.0
TCL: Minimizing for 100 steps
ETITLE: TS BOND ANGLE DIHED IMPRP ELECT VDW BOUNDARY MISC KINETIC TOTAL TEMP POTENTIAL TOTAL3 TEMPAVG PRESSURE GPRESSURE VOLUME PRESSAVG GPRESSAVG
ENERGY: 100 119.3872 710.0600 2905.2589 0.0000 -171259.7173 14991.7867 193.6806 0.0000 0.0000 -152339.5439 0.0000 -152339.5439 -152339.5439 0.0000 13672.7708 -23021.8198 534946.2959 13672.7708 -23021.8198
ENERGY: 120 108.8820 687.5832 2912.9266 0.0000 -172865.8656 14798.2716 281.1908 0.0000 0.0000 -154077.0114 0.0000 -154077.0114 -154077.0114 0.0000 13218.2588 -4906.0105 534946.2959 13218.2588 -4906.0105
ENERGY: 140 309.4059 708.8604 2913.8027 0.0000 -174236.7600 14731.4767 326.6424 0.0000 0.0000 -155246.5720 0.0000 -155246.5720 -155246.5720 0.0000 12971.5175 -5303.2636 534946.2959 12971.5175 -5303.2636
ENERGY: 160 265.4284 683.1687 2923.1850 0.0000 -176276.3659 14757.3964 382.9286 0.0000 0.0000 -157264.2589 0.0000 -157264.2589 -157264.2589 0.0000 12740.8285 -5743.2769 534946.2959 12740.8285 -5743.2769
ENERGY: 180 268.7691 744.0988 2928.5662 0.0000 -178996.1922 15023.6463 473.3440 0.0000 0.0000 -159557.7677 0.0000 -159557.7677 -159557.7677 0.0000 12521.5656 -6223.9663 534946.2959 12521.5656 -6223.9663
ENERGY: 200 239.0247 694.0741 2941.3711 0.0000 -181556.8768 15587.1939 546.2781 0.0000 0.0000 -161548.9350 0.0000 -161548.9350 -161548.9350 0.0000 12582.6571 -6430.9473 534946.2959 12582.6571 -6430.9473
TCL: Setting parameter constraintScaling to 2.5
TCL: Minimizing for 100 steps
ETITLE: TS BOND ANGLE DIHED IMPRP ELECT VDW BOUNDARY MISC KINETIC TOTAL TEMP POTENTIAL TOTAL3 TEMPAVG PRESSURE GPRESSURE VOLUME PRESSAVG GPRESSAVG
ENERGY: 200 239.0247 694.0741 2941.3711 0.0000 -181556.8768 15587.1939 273.1391 0.0000 0.0000 -161822.0740 0.0000 -161822.0740 -161822.0740 0.0000 13229.5791 -25661.8031 534946.2959 13229.5791 -25661.8031
ENERGY: 220 251.1273 679.8603 2933.0260 0.0000 -182083.0707 15471.1211 338.5262 0.0000 0.0000 -162409.4097 0.0000 -162409.4097 -162409.4097 0.0000 12968.1884 -6100.9062 534946.2959 12968.1884 -6100.9062
ENERGY: 240 139.3353 665.7943 2928.6079 0.0000 -182462.6863 15494.3816 343.5597 0.0000 0.0000 -162891.0075 0.0000 -162891.0075 -162891.0075 0.0000 13034.4177 -6113.9493 534946.2959 13034.4177 -6113.9493
ENERGY: 260 164.3236 683.7830 2921.5939 0.0000 -183941.0278 15800.0321 385.5321 0.0000 0.0000 -163985.7631 0.0000 -163985.7631 -163985.7631 0.0000 13031.7323 -6253.1520 534946.2959 13031.7323 -6253.1520
ENERGY: 280 168.9506 700.8334 2917.5914 0.0000 -185421.5265 16228.1632 454.8892 0.0000 0.0000 -164951.0986 0.0000 -164951.0986 -164951.0986 0.0000 13143.0294 -6345.4171 534946.2959 13143.0294 -6345.4171
ENERGY: 300 126.6790 639.5250 2916.2475 0.0000 -186093.4209 16445.1817 481.3811 0.0000 0.0000 -165484.4064 0.0000 -165484.4064 -165484.4064 0.0000 13207.4150 -6349.4723 534946.2959 13207.4150 -6349.4723
TCL: Setting parameter constraintScaling to 1.25
TCL: Minimizing for 100 steps
ETITLE: TS BOND ANGLE DIHED IMPRP ELECT VDW BOUNDARY MISC KINETIC TOTAL TEMP POTENTIAL TOTAL3 TEMPAVG PRESSURE GPRESSURE VOLUME PRESSAVG GPRESSAVG
ENERGY: 300 126.6790 639.5250 2916.2475 0.0000 -186093.4209 16445.1817 240.6906 0.0000 0.0000 -165725.0970 0.0000 -165725.0970 -165725.0970 0.0000 13655.7584 -26359.3217 534946.2959 13655.7584 -26359.3217
ENERGY: 320 140.3829 638.9397 2911.3735 0.0000 -186776.4576 16608.5914 282.5830 0.0000 0.0000 -166194.5871 0.0000 -166194.5871 -166194.5871 0.0000 13601.5899 -6015.7384 534946.2959 13601.5899 -6015.7384
ENERGY: 340 143.3693 625.2331 2909.3209 0.0000 -187251.6602 16773.3960 289.2311 0.0000 0.0000 -166511.1098 0.0000 -166511.1098 -166511.1098 0.0000 13696.5283 -5979.3860 534946.2959 13696.5283 -5979.3860
ENERGY: 360 157.9109 665.3500 2908.2884 0.0000 -188733.1040 17277.9884 343.8009 0.0000 0.0000 -167379.7653 0.0000 -167379.7653 -167379.7653 0.0000 13862.4296 -6000.6048 534946.2959 13862.4296 -6000.6048
ENERGY: 380 150.0425 641.3003 2900.4344 0.0000 -190314.0062 17896.9130 397.6508 0.0000 0.0000 -168327.6653 0.0000 -168327.6653 -168327.6653 0.0000 14024.5501 -5978.7355 534946.2959 14024.5501 -5978.7355
ENERGY: 400 138.2124 634.2187 2897.3816 0.0000 -191029.0901 18185.6795 419.3712 0.0000 0.0000 -168754.2268 0.0000 -168754.2268 -168754.2268 0.0000 14177.4588 -5923.2668 534946.2959 14177.4588 -5923.2668
TCL: Setting parameter constraintScaling to 0.625
TCL: Minimizing for 100 steps
ETITLE: TS BOND ANGLE DIHED IMPRP ELECT VDW BOUNDARY MISC KINETIC TOTAL TEMP POTENTIAL TOTAL3 TEMPAVG PRESSURE GPRESSURE VOLUME PRESSAVG GPRESSAVG
ENERGY: 400 138.2124 634.2187 2897.3816 0.0000 -191029.0901 18185.6795 209.6856 0.0000 0.0000 -168963.9124 0.0000 -168963.9124 -168963.9124 0.0000 14487.0294 -26681.7234 534946.2959 14487.0294 -26681.7234
ENERGY: 420 194.2675 640.7461 2895.1344 0.0000 -191275.4660 18221.8186 224.1321 0.0000 0.0000 -169099.3673 0.0000 -169099.3673 -169099.3673 0.0000 14454.1123 -5673.4698 534946.2959 14454.1123 -5673.4698
ENERGY: 440 139.6211 648.7925 2891.5283 0.0000 -191643.9450 18324.9543 232.6481 0.0000 0.0000 -169406.4006 0.0000 -169406.4006 -169406.4006 0.0000 14522.2770 -5658.2228 534946.2959 14522.2770 -5658.2228
ENERGY: 460 292.4371 736.0481 2894.4148 0.0000 -192478.5541 18580.6435 269.3340 0.0000 0.0000 -169705.6767 0.0000 -169705.6767 -169705.6767 0.0000 14544.3571 -5725.6961 534946.2959 14544.3571 -5725.6961
ENERGY: 480 183.8860 671.7114 2883.4831 0.0000 -193338.3512 18898.5990 289.4964 0.0000 0.0000 -170411.1752 0.0000 -170411.1752 -170411.1752 0.0000 14723.7320 -5666.6373 534946.2959 14723.7320 -5666.6373
ENERGY: 500 185.9256 643.7653 2877.6270 0.0000 -194054.0949 19194.3675 310.8560 0.0000 0.0000 -170841.5534 0.0000 -170841.5534 -170841.5534 0.0000 14761.8424 -5656.4317 534946.2959 14761.8424 -5656.4317
TCL: Setting parameter constraintScaling to 0.3125
TCL: Minimizing for 100 steps
ETITLE: TS BOND ANGLE DIHED IMPRP ELECT VDW BOUNDARY MISC KINETIC TOTAL TEMP POTENTIAL TOTAL3 TEMPAVG PRESSURE GPRESSURE VOLUME PRESSAVG GPRESSAVG
ENERGY: 500 185.9256 643.7653 2877.6270 0.0000 -194054.0949 19194.3675 155.4280 0.0000 0.0000 -170996.9814 0.0000 -170996.9814 -170996.9814 0.0000 14959.1740 -26926.2449 534946.2959 14959.1740 -26926.2449
ENERGY: 520 170.0249 695.4344 2880.9147 0.0000 -194510.0811 19349.2442 171.5799 0.0000 0.0000 -171242.8831 0.0000 -171242.8831 -171242.8831 0.0000 15043.9024 -5447.6839 534946.2959 15043.9024 -5447.6839
ENERGY: 540 170.2497 669.4125 2871.3248 0.0000 -195374.2227 19696.0980 188.9257 0.0000 0.0000 -171778.2119 0.0000 -171778.2119 -171778.2119 0.0000 15201.9736 -5383.6196 534946.2959 15201.9736 -5383.6196
ENERGY: 560 178.0829 650.2049 2869.9841 0.0000 -196233.0183 20026.5664 208.5984 0.0000 0.0000 -172299.5816 0.0000 -172299.5816 -172299.5816 0.0000 15319.9834 -5359.5870 534946.2959 15319.9834 -5359.5870
ENERGY: 580 306.4077 754.1962 2883.4710 0.0000 -197039.6276 20339.9254 220.8288 0.0000 0.0000 -172534.7985 0.0000 -172534.7985 -172534.7985 0.0000 15472.7311 -5306.3820 534946.2959 15472.7311 -5306.3820
ENERGY: 600 175.8324 649.8250 2860.8710 0.0000 -197466.4700 20481.4808 228.4327 0.0000 0.0000 -173070.0282 0.0000 -173070.0282 -173070.0282 0.0000 15538.3179 -5288.4984 534946.2959 15538.3179 -5288.4984
TCL: Setting parameter constraintScaling to 0.15625
TCL: Minimizing for 100 steps
ETITLE: TS BOND ANGLE DIHED IMPRP ELECT VDW BOUNDARY MISC KINETIC TOTAL TEMP POTENTIAL TOTAL3 TEMPAVG PRESSURE GPRESSURE VOLUME PRESSAVG GPRESSAVG
ENERGY: 600 175.8324 649.8250 2860.8710 0.0000 -197466.4700 20481.4808 114.2163 0.0000 0.0000 -173184.2446 0.0000 -173184.2446 -173184.2446 0.0000 15662.6043 -27025.9515 534946.2959 15662.6043 -27025.9515
ENERGY: 620 170.8046 640.4760 2859.2180 0.0000 -197659.8556 20534.4990 118.1395 0.0000 0.0000 -173336.7185 0.0000 -173336.7185 -173336.7185 0.0000 15682.3234 -5167.7975 534946.2959 15682.3234 -5167.7975
ENERGY: 640 162.3194 647.5328 2855.7462 0.0000 -198172.0849 20727.6472 125.9284 0.0000 0.0000 -173652.9110 0.0000 -173652.9110 -173652.9110 0.0000 15756.7880 -5151.0662 534946.2959 15756.7880 -5151.0662
ENERGY: 660 160.0116 653.2261 2852.5101 0.0000 -198924.7386 21004.1495 139.8322 0.0000 0.0000 -174115.0091 0.0000 -174115.0091 -174115.0091 0.0000 15859.7649 -5136.1558 534946.2959 15859.7649 -5136.1558
ENERGY: 680 168.1399 658.2366 2849.8675 0.0000 -199326.5525 21140.4826 143.1806 0.0000 0.0000 -174366.6452 0.0000 -174366.6452 -174366.6452 0.0000 15955.5223 -5096.6458 534946.2959 15955.5223 -5096.6458
ENERGY: 700 218.3810 666.5840 2838.4178 0.0000 -200513.1123 21598.0010 157.4658 0.0000 0.0000 -175034.2627 0.0000 -175034.2627 -175034.2627 0.0000 16174.9158 -5023.0265 534946.2959 16174.9158 -5023.0265
TCL: Setting parameter constraintScaling to 0.078125
TCL: Minimizing for 100 steps
ETITLE: TS BOND ANGLE DIHED IMPRP ELECT VDW BOUNDARY MISC KINETIC TOTAL TEMP POTENTIAL TOTAL3 TEMPAVG PRESSURE GPRESSURE VOLUME PRESSAVG GPRESSAVG
ENERGY: 700 218.3810 666.5840 2838.4178 0.0000 -200513.1123 21598.0010 78.7329 0.0000 0.0000 -175112.9956 0.0000 -175112.9956 -175112.9956 0.0000 16250.3300 -27167.3196 534946.2959 16250.3300 -27167.3196
ENERGY: 720 156.6349 641.5650 2838.9191 0.0000 -200612.6590 21629.9175 80.1055 0.0000 0.0000 -175265.5171 0.0000 -175265.5171 -175265.5171 0.0000 16248.6314 -4941.4135 534946.2959 16248.6314 -4941.4135
ENERGY: 740 283.3874 662.3713 2835.4189 0.0000 -201010.3254 21789.6489 84.3764 0.0000 0.0000 -175355.1223 0.0000 -175355.1223 -175355.1223 0.0000 16325.5615 -4926.9239 534946.2959 16325.5615 -4926.9239
ENERGY: 760 177.9259 674.6369 2838.4422 0.0000 -201259.6320 21871.1696 87.3752 0.0000 0.0000 -175610.0822 0.0000 -175610.0822 -175610.0822 0.0000 16315.9673 -4941.2454 534946.2959 16315.9673 -4941.2454
ENERGY: 780 173.7307 661.3679 2829.7225 0.0000 -201695.2756 22037.7059 90.3261 0.0000 0.0000 -175902.4225 0.0000 -175902.4225 -175902.4225 0.0000 16457.1990 -4871.4312 534946.2959 16457.1990 -4871.4312
ENERGY: 800 171.3335 669.8985 2830.3080 0.0000 -202647.5825 22451.2568 99.6424 0.0000 0.0000 -176425.1431 0.0000 -176425.1431 -176425.1431 0.0000 16656.2392 -4790.6493 534946.2959 16656.2392 -4790.6493
TCL: Setting parameter constraintScaling to 0.0390625
TCL: Minimizing for 100 steps
ETITLE: TS BOND ANGLE DIHED IMPRP ELECT VDW BOUNDARY MISC KINETIC TOTAL TEMP POTENTIAL TOTAL3 TEMPAVG PRESSURE GPRESSURE VOLUME PRESSAVG GPRESSAVG
ENERGY: 800 171.3335 669.8985 2830.3080 0.0000 -202647.5825 22451.2568 49.8212 0.0000 0.0000 -176474.9643 0.0000 -176474.9643 -176474.9643 0.0000 16699.5850 -27229.3175 534946.2959 16699.5850 -27229.3175
ENERGY: 820 228.0112 686.8566 2826.6334 0.0000 -202925.2919 22561.1304 51.8686 0.0000 0.0000 -176570.7918 0.0000 -176570.7918 -176570.7918 0.0000 16737.5700 -4746.4953 534946.2959 16737.5700 -4746.4953
ENERGY: 840 163.5963 654.8161 2821.8663 0.0000 -203357.7652 22731.6595 54.0404 0.0000 0.0000 -176931.7867 0.0000 -176931.7867 -176931.7867 0.0000 16824.6372 -4697.3491 534946.2959 16824.6372 -4697.3491
ENERGY: 860 164.9098 656.5085 2820.6447 0.0000 -203516.4334 22786.4785 54.2959 0.0000 0.0000 -177033.5960 0.0000 -177033.5960 -177033.5960 0.0000 16872.8668 -4675.8201 534946.2959 16872.8668 -4675.8201
ENERGY: 880 166.8148 654.7436 2825.9547 0.0000 -204018.0952 23008.9050 56.8040 0.0000 0.0000 -177304.8731 0.0000 -177304.8731 -177304.8731 0.0000 16946.9865 -4638.7629 534946.2959 16946.9865 -4638.7629
ENERGY: 900 169.0878 649.1703 2815.3520 0.0000 -204170.7743 23064.5204 57.7768 0.0000 0.0000 -177414.8670 0.0000 -177414.8670 -177414.8670 0.0000 16969.3343 -4623.9394 534946.2959 16969.3343 -4623.9394
TCL: Setting parameter constraintScaling to 0.01953125
TCL: Minimizing for 100 steps
ETITLE: TS BOND ANGLE DIHED IMPRP ELECT VDW BOUNDARY MISC KINETIC TOTAL TEMP POTENTIAL TOTAL3 TEMPAVG PRESSURE GPRESSURE VOLUME PRESSAVG GPRESSAVG
ENERGY: 900 169.0878 649.1703 2815.3520 0.0000 -204170.7743 23064.5204 28.8884 0.0000 0.0000 -177443.7554 0.0000 -177443.7554 -177443.7554 0.0000 16993.2654 -27302.2047 534946.2959 16993.2654 -27302.2047
ENERGY: 920 168.0798 655.5488 2817.1396 0.0000 -204342.2123 23134.0723 29.5462 0.0000 0.0000 -177537.8257 0.0000 -177537.8257 -177537.8257 0.0000 17032.6053 -4597.1027 534946.2959 17032.6053 -4597.1027
ENERGY: 940 162.4877 656.9528 2811.5063 0.0000 -204916.2007 23400.9073 31.4237 0.0000 0.0000 -177852.9229 0.0000 -177852.9229 -177852.9229 0.0000 17194.3811 -4509.1017 534946.2959 17194.3811 -4509.1017
ENERGY: 960 352.1408 731.4134 2815.9510 0.0000 -205311.6484 23600.1530 32.6723 0.0000 0.0000 -177779.3178 0.0000 -177779.3178 -177779.3178 0.0000 17248.6460 -4469.4314 534946.2959 17248.6460 -4469.4314
ENERGY: 980 183.5441 681.1373 2814.0855 0.0000 -205541.4426 23671.2213 33.1109 0.0000 0.0000 -178158.3434 0.0000 -178158.3434 -178158.3434 0.0000 17340.4224 -4443.6673 534946.2959 17340.4224 -4443.6673
ENERGY: 1000 163.1717 659.1853 2810.4536 0.0000 -205634.9090 23690.6941 33.5399 0.0000 0.0000 -178277.8645 0.0000 -178277.8645 -178277.8645 0.0000 17343.9840 -4451.6791 534946.2959 17343.9840 -4451.6791
TCL: Setting parameter constraintScaling to 0
TCL: Minimizing for 5000 steps
ETITLE: TS BOND ANGLE DIHED IMPRP ELECT VDW BOUNDARY MISC KINETIC TOTAL TEMP POTENTIAL TOTAL3 TEMPAVG PRESSURE GPRESSURE VOLUME PRESSAVG GPRESSAVG
ENERGY: 1000 163.1717 659.1853 2810.4536 0.0000 -205634.9090 23690.6941 0.0000 0.0000 0.0000 -178311.4044 0.0000 -178311.4044 -178311.4044 0.0000 17370.4114 -27273.3264 534946.2959 17370.4114 -27273.3264
ENERGY: 2000 227.6569 679.4546 2797.1789 0.0000 -214809.6162 27728.4739 0.0000 0.0000 0.0000 -183376.8519 0.0000 -183376.8519 -183376.8519 0.0000 19496.8078 -3327.3863 534946.2959 19496.8078 -3327.3863
ENERGY: 3000 168.3700 664.1444 2794.4236 0.0000 -217612.8354 28951.2591 0.0000 0.0000 0.0000 -185034.6383 0.0000 -185034.6383 -185034.6383 0.0000 20144.8038 -2682.6670 534946.2959 20144.8038 -2682.6670
ENERGY: 4000 166.5655 662.5519 2784.5845 0.0000 -218810.6501 29421.3842 0.0000 0.0000 0.0000 -185775.5640 0.0000 -185775.5640 -185775.5640 0.0000 20397.9188 -2552.0558 534946.2959 20397.9188 -2552.0558
ENERGY: 5000 166.5051 662.4490 2783.4257 0.0000 -219399.3662 29607.1903 0.0000 0.0000 0.0000 -186179.7961 0.0000 -186179.7961 -186179.7961 0.0000 20478.9128 -2530.4243 534946.2959 20478.9128 -2530.4243
ENERGY: 6000 165.6634 662.0964 2782.9565 0.0000 -219841.7737 29776.0233 0.0000 0.0000 0.0000 -186455.0341 0.0000 -186455.0341 -186455.0341 0.0000 20572.6407 -2490.7511 534946.2959 20572.6407 -2490.7511
