Info: SIMULATION PARAMETERS:
Info: TIMESTEP               1
Info: NUMBER OF STEPS        0
Info: STEPS PER CYCLE        10
Info: PERIODIC CELL BASIS 1  72.449 0 0
Info: PERIODIC CELL BASIS 2  0 93.247 0
Info: PERIODIC CELL BASIS 3  0 0 79.185
Info: PERIODIC CELL CENTER   -0.248 -0.156 -0.047
Info: WRAPPING WATERS AROUND PERIODIC BOUNDARIES ON OUTPUT.
Info: WRAPPING ALL CLUSTERS AROUND PERIODIC BOUNDARIES ON OUTPUT.
Info: FIRST LDB TIMESTEP     50
Info: LAST LDB TIMESTEP     -1
Info: HOM BACKGROUND SCALING 1
Info: PME BACKGROUND SCALING 1
Info: MIN ATOMS PER PATCH    40
Info: VELOCITY FILE          ../replicas/rep26/equilibration/eq1.vel
Info: CENTER OF MASS MOVING INITIALLY? NO
Info: DIELECTRIC             1
Info: EXCLUDE                SCALED ONE-FOUR
Info: 1-4 ELECTROSTATICS SCALED BY 0.833333
Info: MODIFIED 1-4 VDW PARAMETERS WILL BE USED
Info: DCD FILENAME           ../replicas/rep26/equilibration/eq2.dcd
Info: DCD FREQUENCY          5000
Info: DCD FIRST STEP         5000
Info: DCD FILE WILL CONTAIN UNIT CELL DATA
Info: XST FILENAME           ../replicas/rep26/equilibration/eq2.xst
Info: XST FREQUENCY          5000
Info: NO VELOCITY DCD OUTPUT
Info: NO FORCE DCD OUTPUT
Info: OUTPUT FILENAME        ../replicas/rep26/equilibration/eq2
Info: RESTART FILENAME       ../replicas/rep26/equilibration/eq2.restart
Info: RESTART FREQUENCY      5000
Info: BINARY RESTART FILES WILL BE USED
Info: SWITCHING ACTIVE
Info: SWITCHING ON           10
Info: SWITCHING OFF          12
Info: PAIRLIST DISTANCE      13.5
Info: PAIRLIST SHRINK RATE   0.01
Info: PAIRLIST GROW RATE     0.01
Info: PAIRLIST TRIGGER       0.3
Info: PAIRLISTS PER CYCLE    2
Info: PAIRLISTS ENABLED
Info: MARGIN                 0.48
Info: HYDROGEN GROUP CUTOFF  2.5
Info: PATCH DIMENSION        16.48
Info: ENERGY OUTPUT STEPS    500
Info: CROSSTERM ENERGY INCLUDED IN DIHEDRAL
Info: TIMING OUTPUT STEPS    5000
Info: PRESSURE OUTPUT STEPS  500
Info: HARMONIC CONSTRAINTS ACTIVE
Info: HARMONIC CONS EXP      2
Info: HARMONIC CONS SCALING  10
Info: LANGEVIN DYNAMICS ACTIVE
Info: LANGEVIN TEMPERATURE   300
Info: LANGEVIN USING BBK INTEGRATOR
Info: LANGEVIN DAMPING COEFFICIENT IS 5 INVERSE PS
Info: LANGEVIN DYNAMICS NOT APPLIED TO HYDROGENS
Info: BERENDSEN PRESSURE COUPLING ACTIVE
Info:     TARGET PRESSURE IS 1 BAR
Info:     COMPRESSIBILITY ESTIMATE IS 4.57e-05 BAR^(-1)
Info:     RELAXATION TIME IS 100 FS
Info:     APPLIED EVERY 2 STEPS
Info:     PRESSURE CONTROL IS GROUP-BASED
Info:       CELL FLUCTUATION IS ISOTROPIC
Info: PARTICLE MESH EWALD (PME) ACTIVE
Info: PME TOLERANCE               1e-06
Info: PME EWALD COEFFICIENT       0.257952
Info: PME INTERPOLATION ORDER     4
Info: PME GRID DIMENSIONS         80 96 80
Info: PME MAXIMUM GRID SPACING    1
Info: FULL ELECTROSTATIC EVALUATION FREQUENCY      2
Info: USING VERLET I (r-RESPA) MTS SCHEME.
Info: C1 SPLITTING OF LONG RANGE ELECTROSTATICS
Info: PLACING ATOMS IN PATCHES BY HYDROGEN GROUPS
Info: RIGID BONDS TO HYDROGEN : WATER
Info:         ERROR TOLERANCE : 1e-05
Info:          MAX ITERATIONS : 100
Info: RIGID WATER USING SETTLE ALGORITHM
Info: RANDOM NUMBER SEED     1503707023
Info: USE HYDROGEN BONDS?    NO
Info: Using AMBER format force field!
Info: AMBER PARM FILE        ../build/complex.top
Info: COORDINATE PDB         ../replicas/rep26/equilibration/eq1.coor
Info: Exclusions in PARM file will be ignored!
Info: SCNB (VDW SCALING)     2
Info: USING ARITHMETIC MEAN TO COMBINE L-J SIGMA PARAMETERS
Info: SUMMARY OF PARAMETERS:
Info: 71 BONDS
Info: 145 ANGLES
Info: 76 DIHEDRAL
Info: 0 IMPROPER
Info: 0 CROSSTERM
Info: 0 VDW
Info: 190 VDW_PAIRS
Info: 0 NBTHOLE_PAIRS
Info: STRUCTURE SUMMARY:
Info: 49394 ATOMS
Info: 49448 BONDS
Info: 8698 ANGLES
Info: 18780 DIHEDRALS
Info: 0 IMPROPERS
Info: 0 CROSSTERMS
Info: 0 EXCLUSIONS
Info: 2336 CONSTRAINTS
Info: 44667 RIGID BONDS
Info: 103515 DEGREES OF FREEDOM
Info: 17225 HYDROGEN GROUPS
Info: 4 ATOMS IN LARGEST HYDROGEN GROUP
Info: 17225 MIGRATION GROUPS
Info: 4 ATOMS IN LARGEST MIGRATION GROUP
Info: TOTAL MASS = 301478 amu
Info: TOTAL CHARGE = 1.00115e-05 e
Info: MASS DENSITY = 0.935846 g/cm^3
Info: ATOM DENSITY = 0.0923345 atoms/A^3
Info: ADDED 70656 IMPLICIT EXCLUSIONS
Info: NONBONDED TABLE R-SQUARED SPACING: 0.0625
Info: NONBONDED TABLE SIZE: 769 POINTS
Info: REMOVING COM VELOCITY 0.00218347 0.0166911 0.00950852
TCL: Running for 5000 steps
ETITLE: TS BOND ANGLE DIHED IMPRP ELECT VDW BOUNDARY MISC KINETIC TOTAL TEMP POTENTIAL TOTAL3 TEMPAVG PRESSURE GPRESSURE VOLUME PRESSAVG GPRESSAVG
ENERGY: 0 392.3884 1209.2777 2887.1887 0.0000 -212676.8710 29691.2280 0.0000 0.0000 10139.2074 -168357.5808 98.5805 -178496.7882 -168347.8931 98.5805 -2254.6995 -2352.7441 534946.2959 -2254.6995 -2352.7441
ENERGY: 1000 1237.6863 1976.7651 3100.5196 0.0000 -193723.6603 26622.5165 780.5859 0.0000 24235.3221 -135770.2648 235.6329 -160005.5870 -135745.8125 218.6721 -138.9510 -53.3107 522819.4976 -7.6212 -7.4040
ENERGY: 2000 1447.6850 2117.0284 3131.2857 0.0000 -184158.1986 23373.8115 783.8018 0.0000 28026.4338 -125278.1525 272.4927 -153304.5863 -125235.1737 264.6635 -31.9492 18.1988 516000.8313 -17.5044 -17.6364
ENERGY: 3000 1554.7570 2178.2439 3155.6956 0.0000 -178819.8591 21495.1758 797.3917 0.0000 29353.0577 -120285.5373 285.3911 -149638.5950 -120233.9744 283.4237 -81.1528 -2.0474 510214.6733 -13.7225 -14.3187
ENERGY: 4000 1550.4444 2259.4207 3129.6457 0.0000 -177034.8163 20628.1930 818.6714 0.0000 30367.0815 -118281.3595 295.2502 -148648.4410 -118247.8715 292.9075 -13.2092 26.3871 506769.3960 -7.0949 -7.0557
ENERGY: 5000 1547.9361 2232.0774 3102.9154 0.0000 -176304.3126 20518.6838 815.1067 0.0000 30636.4310 -117451.1621 297.8690 -148087.5931 -117405.1442 296.2586 -95.7280 -29.4316 504574.6712 -11.0665 -11.1356
TCL: Setting parameter constraintScaling to 5.0
TCL: Running for 5000 steps
ETITLE: TS BOND ANGLE DIHED IMPRP ELECT VDW BOUNDARY MISC KINETIC TOTAL TEMP POTENTIAL TOTAL3 TEMPAVG PRESSURE GPRESSURE VOLUME PRESSAVG GPRESSAVG
ENERGY: 5000 1547.9361 2232.0774 3102.9154 0.0000 -176304.3126 20518.6838 407.5534 0.0000 30634.3910 -117860.7555 297.8491 -148495.1465 -117817.5507 297.8491 -110.1438 -45.8599 504574.6712 -110.1438 -45.8599
ENERGY: 6000 1589.6400 2254.7790 3161.7384 0.0000 -175962.9239 20461.1683 629.3089 0.0000 30380.7875 -117485.5018 295.3834 -147866.2893 -117449.0657 297.2525 -50.2406 -44.3993 504874.9148 -1.7870 -2.3240
ENERGY: 7000 1555.6002 2355.7017 3144.7878 0.0000 -175567.5320 20198.0519 675.0142 0.0000 30514.3070 -117124.0693 296.6816 -147638.3763 -117077.0548 298.3971 -46.1288 -40.7968 503100.1906 -6.2579 -6.5828
ENERGY: 8000 1580.2866 2282.8765 3183.4137 0.0000 -175726.2385 20069.3972 630.0139 0.0000 30919.8635 -117060.3869 300.6247 -147980.2505 -117005.6042 298.9978 22.5646 -2.5960 503572.8755 1.1717 1.4962
ENERGY: 9000 1616.9913 2265.2087 3168.0056 0.0000 -175752.7651 20198.9326 642.4400 0.0000 30805.9860 -117055.2010 299.5175 -147861.1870 -117008.4840 299.9731 -112.3468 20.8560 503118.0736 0.0340 0.4251
ENERGY: 10000 1556.3639 2284.1307 3137.8792 0.0000 -175093.7741 19944.9638 661.5835 0.0000 30727.9213 -116780.9316 298.7585 -147508.8529 -116733.4987 299.7459 -32.1469 8.9979 502030.3586 2.6578 3.1382
TCL: Setting parameter constraintScaling to 2.5
TCL: Running for 5000 steps
ETITLE: TS BOND ANGLE DIHED IMPRP ELECT VDW BOUNDARY MISC KINETIC TOTAL TEMP POTENTIAL TOTAL3 TEMPAVG PRESSURE GPRESSURE VOLUME PRESSAVG GPRESSAVG
ENERGY: 10000 1556.3639 2284.1307 3137.8792 0.0000 -175093.7741 19944.9638 330.7918 0.0000 30725.8812 -117113.7635 298.7387 -147839.6447 -117065.4694 298.7387 -74.1536 -32.9161 502030.3586 -74.1536 -32.9161
ENERGY: 11000 1634.0122 2308.5632 3191.3651 0.0000 -175892.3508 20195.0183 514.0552 0.0000 30688.9082 -117360.4286 298.3792 -148049.3368 -117310.5839 299.3063 54.3878 64.5198 500214.0412 -0.2755 0.6518
ENERGY: 12000 1596.7383 2299.3605 3164.1939 0.0000 -175471.9025 19996.6310 526.3911 0.0000 30883.1244 -117005.4633 300.2675 -147888.5877 -116965.2107 299.9524 -31.0588 8.4912 500338.2988 5.6963 5.1394
ENERGY: 13000 1667.5976 2359.4423 3188.8104 0.0000 -176061.4412 20444.2465 502.8202 0.0000 30691.2720 -117207.2524 298.4022 -147898.5244 -117169.9069 300.2789 -183.9399 -63.8536 499379.6018 -18.1612 -17.5878
ENERGY: 14000 1603.7420 2331.4808 3158.4364 0.0000 -175824.0696 19956.8883 520.7423 0.0000 31169.5408 -117083.2389 303.0522 -148252.7797 -117043.5881 298.8128 52.0004 45.5789 500177.9428 3.6287 3.7263
ENERGY: 15000 1603.7459 2360.2948 3168.0981 0.0000 -175901.7709 20190.0194 519.9274 0.0000 30795.4053 -117264.2800 299.4146 -148059.6853 -117223.5511 299.2114 -86.8031 0.5743 498732.0977 -12.5463 -12.1211
TCL: Setting parameter constraintScaling to 1.25
TCL: Running for 5000 steps
ETITLE: TS BOND ANGLE DIHED IMPRP ELECT VDW BOUNDARY MISC KINETIC TOTAL TEMP POTENTIAL TOTAL3 TEMPAVG PRESSURE GPRESSURE VOLUME PRESSAVG GPRESSAVG
ENERGY: 15000 1603.7459 2360.2948 3168.0981 0.0000 -175901.7709 20190.0194 259.9637 0.0000 30793.3686 -117526.2804 299.3948 -148319.6490 -117486.4592 299.3948 -134.1977 -48.9971 498732.0977 -134.1977 -48.9971
ENERGY: 16000 1629.2872 2362.7884 3167.7748 0.0000 -175938.7301 20204.2620 381.3483 0.0000 30783.4418 -117409.8276 299.2983 -148193.2695 -117360.9711 298.7437 -112.2240 -46.9316 498742.7752 0.7765 0.3991
ENERGY: 17000 1628.4237 2372.9728 3184.1941 0.0000 -176128.9714 20220.9314 383.3416 0.0000 30892.4509 -117446.6568 300.3582 -148339.1077 -117399.4609 298.9214 -36.2305 20.9506 499322.5039 10.8289 10.5185
ENERGY: 18000 1664.7655 2322.1085 3181.1863 0.0000 -175261.8697 19857.9685 396.5868 0.0000 30575.9276 -117263.3264 297.2807 -147839.2541 -117217.0011 299.0440 12.8698 -4.8569 498581.6500 -11.4847 -11.7311
ENERGY: 19000 1628.8149 2328.3084 3139.2784 0.0000 -175503.7997 19975.6320 398.5949 0.0000 30965.3007 -117067.8703 301.0665 -148033.1710 -117014.5346 299.9817 -87.6604 20.9120 499020.7636 -2.8969 -2.6272
ENERGY: 20000 1642.4064 2408.2106 3195.0971 0.0000 -175852.2261 20040.1351 418.0981 0.0000 30746.1726 -117402.1063 298.9360 -148148.2789 -117363.1112 299.2250 -45.5067 -47.4875 497417.8692 -9.8615 -9.1357
TCL: Setting parameter constraintScaling to 0.625
TCL: Running for 5000 steps
ETITLE: TS BOND ANGLE DIHED IMPRP ELECT VDW BOUNDARY MISC KINETIC TOTAL TEMP POTENTIAL TOTAL3 TEMPAVG PRESSURE GPRESSURE VOLUME PRESSAVG GPRESSAVG
ENERGY: 20000 1642.4064 2408.2106 3195.0971 0.0000 -175852.2261 20040.1351 209.0491 0.0000 30744.1335 -117613.1944 298.9161 -148357.3279 -117570.3778 298.9161 -96.9919 -99.8125 497417.8692 -96.9919 -99.8125
ENERGY: 21000 1579.9976 2381.7643 3201.3047 0.0000 -175694.8543 20151.7723 312.8221 0.0000 30699.1851 -117368.0082 298.4791 -148067.1932 -117334.2220 298.9646 131.7688 98.7974 498934.7679 4.1508 4.0640
ENERGY: 22000 1664.4609 2372.5875 3227.4948 0.0000 -175741.5187 19972.7241 314.1967 0.0000 30895.0048 -117295.0499 300.3830 -148190.0547 -117244.3245 299.6010 27.6886 3.1364 499328.7233 3.4083 3.1374
ENERGY: 23000 1663.4175 2359.8416 3228.4069 0.0000 -175739.5640 20217.6198 336.4487 0.0000 30813.9125 -117119.9169 299.5946 -147933.8295 -117065.1489 299.9373 3.8892 -34.4247 499481.2902 -3.3624 -3.3045
ENERGY: 24000 1682.1056 2379.4539 3202.5041 0.0000 -175714.1846 20097.7569 284.1689 0.0000 30994.3124 -117073.8827 301.3485 -148068.1951 -117024.7955 300.1908 -263.3554 -104.5395 498527.5905 -7.4033 -6.9037
ENERGY: 25000 1577.1613 2364.7568 3216.6675 0.0000 -175327.7142 19856.1599 315.7653 0.0000 31029.9793 -116967.2243 301.6953 -147997.2036 -116927.7887 299.9745 47.4592 41.4441 499862.4620 1.7283 2.1861
TCL: Setting parameter constraintScaling to 0.3125
TCL: Running for 5000 steps
ETITLE: TS BOND ANGLE DIHED IMPRP ELECT VDW BOUNDARY MISC KINETIC TOTAL TEMP POTENTIAL TOTAL3 TEMPAVG PRESSURE GPRESSURE VOLUME PRESSAVG GPRESSAVG
ENERGY: 25000 1577.1613 2364.7568 3216.6675 0.0000 -175327.7142 19856.1599 157.8826 0.0000 31027.9433 -117127.1429 301.6755 -148155.0862 -117083.5803 301.6755 -33.5129 -33.6604 499862.4620 -33.5129 -33.6604
ENERGY: 26000 1614.5694 2439.1707 3216.3168 0.0000 -175823.4395 20045.6390 233.2168 0.0000 31058.1525 -117216.3743 301.9692 -148274.5268 -117162.1765 300.4783 16.8139 68.9462 499655.4766 -1.2991 -1.4622
ENERGY: 27000 1661.1832 2405.2351 3207.9400 0.0000 -176031.8110 20215.1310 252.2044 0.0000 30746.3078 -117543.8095 298.9373 -148290.1173 -117497.4494 300.3215 -24.6151 37.3168 496855.4086 -14.6906 -14.9661
ENERGY: 28000 1667.9268 2428.4977 3207.0021 0.0000 -176097.9548 20295.8473 269.1757 0.0000 30864.4362 -117365.0690 300.0858 -148229.5052 -117327.6545 300.6322 14.6837 109.6086 496630.0054 -6.4515 -6.0496
ENERGY: 29000 1649.0640 2378.2341 3233.8950 0.0000 -175897.0998 20168.4824 273.2793 0.0000 30777.4573 -117416.6878 299.2401 -148194.1451 -117366.5414 300.2451 -52.5183 9.7433 497967.7337 6.5841 6.9813
ENERGY: 30000 1600.8465 2366.0293 3208.9305 0.0000 -175619.7365 19928.0282 252.0121 0.0000 30875.5345 -117388.3554 300.1937 -148263.8899 -117339.7712 299.7448 38.5430 51.2700 498908.6958 9.2003 8.8864
TCL: Setting parameter constraintScaling to 0.15625
TCL: Running for 5000 steps
ETITLE: TS BOND ANGLE DIHED IMPRP ELECT VDW BOUNDARY MISC KINETIC TOTAL TEMP POTENTIAL TOTAL3 TEMPAVG PRESSURE GPRESSURE VOLUME PRESSAVG GPRESSAVG
ENERGY: 30000 1600.8465 2366.0293 3208.9305 0.0000 -175619.7365 19928.0282 126.0061 0.0000 30873.4871 -117516.4089 300.1738 -148389.8959 -117474.2385 300.1738 1.2055 15.8815 498908.6958 1.2055 15.8815
ENERGY: 31000 1667.7705 2433.1594 3208.4068 0.0000 -175578.0277 20021.6383 198.3629 0.0000 31153.0268 -116895.6630 302.8917 -148048.6898 -116840.8938 300.9338 -52.0486 38.9937 497417.8024 6.2641 6.0992
ENERGY: 32000 1703.8771 2414.2317 3195.5489 0.0000 -175274.4833 20004.3735 206.4612 0.0000 30922.3447 -116827.6463 300.6488 -147749.9910 -116782.1989 301.4729 -81.2112 30.2348 497014.3725 0.2539 0.8199
ENERGY: 33000 1653.1700 2399.1420 3209.0275 0.0000 -175473.4786 19773.1313 198.1826 0.0000 30939.2103 -117301.6149 300.8128 -148240.8252 -117259.4423 301.9718 -67.3625 -68.4181 497392.8410 -4.2384 -4.1838
ENERGY: 34000 1652.4308 2372.4038 3218.1881 0.0000 -176114.4261 20259.2300 203.8846 0.0000 30986.5887 -117421.7001 301.2735 -148408.2888 -117370.9592 300.1991 -94.9638 -75.1971 497572.7364 -0.8194 -1.3802
ENERGY: 35000 1590.9632 2442.7705 3209.1114 0.0000 -175850.1689 20091.5215 192.8569 0.0000 30827.9794 -117494.9659 299.7313 -148322.9453 -117450.3359 300.0806 -28.5650 16.2226 498677.6469 12.0371 12.2466
TCL: Setting parameter constraintScaling to 0.078125
TCL: Running for 5000 steps
ETITLE: TS BOND ANGLE DIHED IMPRP ELECT VDW BOUNDARY MISC KINETIC TOTAL TEMP POTENTIAL TOTAL3 TEMPAVG PRESSURE GPRESSURE VOLUME PRESSAVG GPRESSAVG
ENERGY: 35000 1590.9632 2442.7705 3209.1114 0.0000 -175850.1689 20091.5215 96.4284 0.0000 30825.9121 -117593.4617 299.7112 -148419.3738 -117548.4510 299.7112 -34.2436 11.8057 498677.6469 -34.2436 11.8057
ENERGY: 36000 1619.8237 2444.0018 3207.7800 0.0000 -175942.9709 20103.1048 142.8802 0.0000 30968.9504 -117456.4299 301.1020 -148425.3803 -117409.4308 299.9666 -15.1697 -27.9437 497926.5208 9.7446 9.6137
ENERGY: 37000 1615.2920 2431.9661 3218.0626 0.0000 -175687.3931 19865.1355 149.3146 0.0000 30692.2412 -117715.3810 298.4116 -148407.6223 -117678.6179 299.7889 -84.2418 -70.6566 498685.5146 -5.9740 -6.0624
ENERGY: 38000 1665.8868 2423.9247 3223.9328 0.0000 -176313.9364 20382.5851 149.0990 0.0000 30988.8855 -117479.6226 301.2958 -148468.5081 -117432.9491 299.8016 -53.5171 -26.5603 499083.5298 6.9037 7.2002
ENERGY: 39000 1583.5948 2389.9811 3232.9148 0.0000 -175827.0832 20103.0019 159.1543 0.0000 30926.9857 -117431.4506 300.6940 -148358.4363 -117382.5576 300.5904 18.2023 -22.6814 498336.9313 0.2595 0.2788
ENERGY: 40000 1614.6255 2401.2493 3191.9117 0.0000 -175488.5962 19710.1216 167.0737 0.0000 30907.9305 -117495.6840 300.5087 -148403.6145 -117448.5870 299.9570 -154.8889 -91.6693 495190.7148 -18.1055 -18.3017
TCL: Setting parameter constraintScaling to 0.0390625
TCL: Running for 5000 steps
ETITLE: TS BOND ANGLE DIHED IMPRP ELECT VDW BOUNDARY MISC KINETIC TOTAL TEMP POTENTIAL TOTAL3 TEMPAVG PRESSURE GPRESSURE VOLUME PRESSAVG GPRESSAVG
ENERGY: 40000 1614.6255 2401.2493 3191.9117 0.0000 -175488.5963 19710.1216 83.5368 0.0000 30905.8861 -117581.2652 300.4888 -148487.1513 -117540.1596 300.4888 -143.5707 -98.1177 495190.7148 -143.5707 -98.1177
ENERGY: 41000 1595.4179 2410.5913 3207.3522 0.0000 -175956.1968 20001.0008 106.0062 0.0000 30848.9587 -117786.8696 299.9353 -148635.8284 -117737.9067 299.9717 -35.4719 8.5922 495858.6622 -1.1224 -1.2177
ENERGY: 42000 1651.1745 2427.6745 3234.9049 0.0000 -176205.1380 20093.3898 113.9448 0.0000 30488.9961 -118195.0534 296.4355 -148684.0495 -118152.3016 298.9080 -99.1885 -83.0893 495050.9844 -6.2565 -6.0430
ENERGY: 43000 1633.0374 2453.5484 3284.9470 0.0000 -176579.2271 20269.8791 114.8049 0.0000 30822.1954 -118000.8148 299.6751 -148823.0102 -117952.2546 298.4962 49.3073 78.3258 497283.8481 9.6634 9.4075
ENERGY: 44000 1636.8347 2455.2896 3202.3394 0.0000 -175946.4583 19930.2387 122.2832 0.0000 30716.6162 -117882.8566 298.6486 -148599.4728 -117844.0813 299.4545 -38.8529 3.6544 496032.8976 -3.6908 -3.8746
ENERGY: 45000 1616.9009 2394.7078 3228.3239 0.0000 -175977.9516 19955.0739 123.3333 0.0000 30911.2495 -117748.3622 300.5410 -148659.6117 -117708.6422 298.7884 -30.1317 -78.9309 496608.2163 -8.0851 -7.2083
TCL: Setting parameter constraintScaling to 0.01953125
TCL: Running for 5000 steps
ETITLE: TS BOND ANGLE DIHED IMPRP ELECT VDW BOUNDARY MISC KINETIC TOTAL TEMP POTENTIAL TOTAL3 TEMPAVG PRESSURE GPRESSURE VOLUME PRESSAVG GPRESSAVG
ENERGY: 45000 1616.9009 2394.7078 3228.3239 0.0000 -175977.9516 19955.0739 61.6667 0.0000 30909.2345 -117812.0438 300.5214 -148721.2783 -117768.0959 300.5214 -35.5082 -86.4435 496608.2163 -35.5082 -86.4435
ENERGY: 46000 1605.9301 2431.6683 3223.9938 0.0000 -176284.8214 20227.1860 73.8718 0.0000 30837.5037 -117884.6677 299.8239 -148722.1714 -117831.9686 298.8526 -101.9559 -33.0102 497285.9124 -6.8466 -6.6176
ENERGY: 47000 1627.6722 2378.1769 3211.5800 0.0000 -175874.1461 19984.9958 88.7701 0.0000 30859.1544 -117723.7967 300.0344 -148582.9511 -117671.0051 299.0593 -49.3970 33.4701 496676.8220 -1.0650 -1.1748
ENERGY: 48000 1651.6250 2437.4325 3237.0972 0.0000 -176061.9361 20079.0166 86.4405 0.0000 30765.6703 -117804.6542 299.1255 -148570.3245 -117754.7278 299.6476 -7.6335 -27.7119 496512.2098 1.4337 1.4543
ENERGY: 49000 1621.0093 2410.9420 3188.5774 0.0000 -175834.0849 19873.5157 79.0463 0.0000 31018.7093 -117642.2850 301.5858 -148660.9943 -117604.5058 299.4004 15.6171 -70.4535 496429.6733 1.4560 1.2902
ENERGY: 50000 1605.5827 2453.6402 3188.2027 0.0000 -175978.8572 20110.2970 81.0565 0.0000 30629.9708 -117910.1073 297.8062 -148540.0782 -117875.1437 299.7043 28.5980 -11.0624 496749.7839 8.1227 8.5259
TCL: Setting parameter constraintScaling to 0
TCL: Running for 5000 steps
ETITLE: TS BOND ANGLE DIHED IMPRP ELECT VDW BOUNDARY MISC KINETIC TOTAL TEMP POTENTIAL TOTAL3 TEMPAVG PRESSURE GPRESSURE VOLUME PRESSAVG GPRESSAVG
ENERGY: 50000 1605.5827 2453.6402 3188.2027 0.0000 -175978.8572 20110.2970 0.0000 0.0000 30627.9241 -117993.2105 297.7863 -148621.1347 -117950.5412 297.7863 7.3121 -30.8977 496749.7839 7.3121 -30.8977
ENERGY: 51000 1581.9412 2424.6055 3213.1734 0.0000 -176050.3475 20095.9095 0.0000 0.0000 30817.8096 -117916.9083 299.6325 -148734.7179 -117869.9581 299.3300 49.1760 70.3396 497630.5676 11.3026 10.5425
ENERGY: 52000 1609.4948 2418.3656 3235.2873 0.0000 -176061.4380 19950.5024 0.0000 0.0000 30879.8712 -117967.9166 300.2359 -148847.7878 -117926.8547 298.7000 -123.8537 -79.7944 496433.8877 2.5869 2.8927
ENERGY: 53000 1622.6854 2428.6849 3204.2257 0.0000 -175984.9140 20156.6434 0.0000 0.0000 30729.7887 -117842.8860 298.7767 -148572.6746 -117791.1603 299.6278 56.2204 111.0878 496077.3722 6.0026 5.2284
ENERGY: 54000 1637.4833 2410.2363 3266.2966 0.0000 -176011.4147 20077.2759 0.0000 0.0000 30625.5121 -117994.6104 297.7628 -148620.1226 -117948.1915 299.7072 -4.2651 -24.0602 496320.6647 -0.1638 0.0798
ENERGY: 55000 1628.8675 2469.9993 3204.3110 0.0000 -175885.9866 20056.4878 0.0000 0.0000 30832.6909 -117693.6301 299.7772 -148526.3210 -117635.7190 300.6031 -54.5544 -24.4856 495776.2787 -6.6522 -6.6802
