Info: SIMULATION PARAMETERS:
Info: TIMESTEP               1
Info: NUMBER OF STEPS        0
Info: STEPS PER CYCLE        10
Info: PERIODIC CELL BASIS 1  72.449 0 0
Info: PERIODIC CELL BASIS 2  0 93.247 0
Info: PERIODIC CELL BASIS 3  0 0 79.185
Info: PERIODIC CELL CENTER   -0.248 -0.156 -0.047
Info: WRAPPING WATERS AROUND PERIODIC BOUNDARIES ON OUTPUT.
Info: WRAPPING ALL CLUSTERS AROUND PERIODIC BOUNDARIES ON OUTPUT.
Info: FIRST LDB TIMESTEP     50
Info: LAST LDB TIMESTEP     -1
Info: HOM BACKGROUND SCALING 1
Info: PME BACKGROUND SCALING 1
Info: MIN ATOMS PER PATCH    40
Info: VELOCITY FILE          ../replicas/rep50/equilibration/eq1.vel
Info: CENTER OF MASS MOVING INITIALLY? NO
Info: DIELECTRIC             1
Info: EXCLUDE                SCALED ONE-FOUR
Info: 1-4 ELECTROSTATICS SCALED BY 0.833333
Info: MODIFIED 1-4 VDW PARAMETERS WILL BE USED
Info: DCD FILENAME           ../replicas/rep50/equilibration/eq2.dcd
Info: DCD FREQUENCY          5000
Info: DCD FIRST STEP         5000
Info: DCD FILE WILL CONTAIN UNIT CELL DATA
Info: XST FILENAME           ../replicas/rep50/equilibration/eq2.xst
Info: XST FREQUENCY          5000
Info: NO VELOCITY DCD OUTPUT
Info: NO FORCE DCD OUTPUT
Info: OUTPUT FILENAME        ../replicas/rep50/equilibration/eq2
Info: RESTART FILENAME       ../replicas/rep50/equilibration/eq2.restart
Info: RESTART FREQUENCY      5000
Info: BINARY RESTART FILES WILL BE USED
Info: SWITCHING ACTIVE
Info: SWITCHING ON           10
Info: SWITCHING OFF          12
Info: PAIRLIST DISTANCE      13.5
Info: PAIRLIST SHRINK RATE   0.01
Info: PAIRLIST GROW RATE     0.01
Info: PAIRLIST TRIGGER       0.3
Info: PAIRLISTS PER CYCLE    2
Info: PAIRLISTS ENABLED
Info: MARGIN                 0.48
Info: HYDROGEN GROUP CUTOFF  2.5
Info: PATCH DIMENSION        16.48
Info: ENERGY OUTPUT STEPS    500
Info: CROSSTERM ENERGY INCLUDED IN DIHEDRAL
Info: TIMING OUTPUT STEPS    5000
Info: PRESSURE OUTPUT STEPS  500
Info: HARMONIC CONSTRAINTS ACTIVE
Info: HARMONIC CONS EXP      2
Info: HARMONIC CONS SCALING  10
Info: LANGEVIN DYNAMICS ACTIVE
Info: LANGEVIN TEMPERATURE   300
Info: LANGEVIN USING BBK INTEGRATOR
Info: LANGEVIN DAMPING COEFFICIENT IS 5 INVERSE PS
Info: LANGEVIN DYNAMICS NOT APPLIED TO HYDROGENS
Info: BERENDSEN PRESSURE COUPLING ACTIVE
Info:     TARGET PRESSURE IS 1 BAR
Info:     COMPRESSIBILITY ESTIMATE IS 4.57e-05 BAR^(-1)
Info:     RELAXATION TIME IS 100 FS
Info:     APPLIED EVERY 2 STEPS
Info:     PRESSURE CONTROL IS GROUP-BASED
Info:       CELL FLUCTUATION IS ISOTROPIC
Info: PARTICLE MESH EWALD (PME) ACTIVE
Info: PME TOLERANCE               1e-06
Info: PME EWALD COEFFICIENT       0.257952
Info: PME INTERPOLATION ORDER     4
Info: PME GRID DIMENSIONS         80 96 80
Info: PME MAXIMUM GRID SPACING    1
Info: FULL ELECTROSTATIC EVALUATION FREQUENCY      2
Info: USING VERLET I (r-RESPA) MTS SCHEME.
Info: C1 SPLITTING OF LONG RANGE ELECTROSTATICS
Info: PLACING ATOMS IN PATCHES BY HYDROGEN GROUPS
Info: RIGID BONDS TO HYDROGEN : WATER
Info:         ERROR TOLERANCE : 1e-05
Info:          MAX ITERATIONS : 100
Info: RIGID WATER USING SETTLE ALGORITHM
Info: RANDOM NUMBER SEED     1503701809
Info: USE HYDROGEN BONDS?    NO
Info: Using AMBER format force field!
Info: AMBER PARM FILE        ../build/complex.top
Info: COORDINATE PDB         ../replicas/rep50/equilibration/eq1.coor
Info: Exclusions in PARM file will be ignored!
Info: SCNB (VDW SCALING)     2
Info: USING ARITHMETIC MEAN TO COMBINE L-J SIGMA PARAMETERS
Info: SUMMARY OF PARAMETERS:
Info: 71 BONDS
Info: 145 ANGLES
Info: 76 DIHEDRAL
Info: 0 IMPROPER
Info: 0 CROSSTERM
Info: 0 VDW
Info: 190 VDW_PAIRS
Info: 0 NBTHOLE_PAIRS
Info: STRUCTURE SUMMARY:
Info: 49394 ATOMS
Info: 49448 BONDS
Info: 8698 ANGLES
Info: 18780 DIHEDRALS
Info: 0 IMPROPERS
Info: 0 CROSSTERMS
Info: 0 EXCLUSIONS
Info: 2336 CONSTRAINTS
Info: 44667 RIGID BONDS
Info: 103515 DEGREES OF FREEDOM
Info: 17225 HYDROGEN GROUPS
Info: 4 ATOMS IN LARGEST HYDROGEN GROUP
Info: 17225 MIGRATION GROUPS
Info: 4 ATOMS IN LARGEST MIGRATION GROUP
Info: TOTAL MASS = 301478 amu
Info: TOTAL CHARGE = 1.00115e-05 e
Info: MASS DENSITY = 0.935846 g/cm^3
Info: ATOM DENSITY = 0.0923345 atoms/A^3
Info: ADDED 70656 IMPLICIT EXCLUSIONS
Info: NONBONDED TABLE R-SQUARED SPACING: 0.0625
Info: NONBONDED TABLE SIZE: 769 POINTS
Info: REMOVING COM VELOCITY 0.00594559 -0.0230747 -0.0269917
TCL: Running for 5000 steps
ETITLE: TS BOND ANGLE DIHED IMPRP ELECT VDW BOUNDARY MISC KINETIC TOTAL TEMP POTENTIAL TOTAL3 TEMPAVG PRESSURE GPRESSURE VOLUME PRESSAVG GPRESSAVG
ENERGY: 0 400.4323 1234.0332 2900.7495 0.0000 -212678.5056 29530.7396 0.0000 0.0000 10114.1962 -168498.3549 98.3373 -178612.5510 -168488.5979 98.3373 -2402.6345 -2507.0280 534946.2959 -2402.6345 -2507.0280
ENERGY: 1000 1247.3459 1998.2381 3104.7902 0.0000 -193327.0020 26069.5109 772.9570 0.0000 24084.2090 -136049.9508 234.1637 -160134.1598 -136015.9533 218.5123 -27.3047 -17.7283 521673.6721 -15.1218 -14.7372
ENERGY: 2000 1511.1494 2177.6422 3144.6391 0.0000 -184476.3286 23551.2582 789.6528 0.0000 27952.6879 -125349.2991 271.7757 -153301.9869 -125307.1334 265.5167 43.4070 2.4457 516431.5309 -16.4918 -16.1363
ENERGY: 3000 1589.3739 2211.2131 3123.1000 0.0000 -178913.0487 21313.8302 785.3761 0.0000 29419.3210 -120470.8344 286.0354 -149890.1554 -120428.8046 284.0680 -98.0863 -35.1875 512199.3937 -20.2256 -20.6145
ENERGY: 4000 1606.8084 2225.0878 3137.7172 0.0000 -177554.6699 21058.3131 825.5366 0.0000 30366.2384 -118334.9684 295.2420 -148701.2068 -118294.1634 292.8962 -41.0225 3.8277 507415.0218 -13.8700 -13.8773
ENERGY: 5000 1574.9980 2279.0164 3137.5750 0.0000 -176509.5777 20597.2135 795.7209 0.0000 30680.4393 -117444.6147 298.2969 -148125.0540 -117389.3692 297.2987 -0.5537 -16.2181 506806.4884 -13.2086 -12.9111
TCL: Setting parameter constraintScaling to 5.0
TCL: Running for 5000 steps
ETITLE: TS BOND ANGLE DIHED IMPRP ELECT VDW BOUNDARY MISC KINETIC TOTAL TEMP POTENTIAL TOTAL3 TEMPAVG PRESSURE GPRESSURE VOLUME PRESSAVG GPRESSAVG
ENERGY: 5000 1574.9980 2279.0164 3137.5750 0.0000 -176509.5778 20597.2135 397.8604 0.0000 30678.3983 -117844.5161 298.2770 -148522.9145 -117799.6735 298.2770 -106.3693 -116.8195 506806.4884 -106.3693 -116.8195
ENERGY: 6000 1647.5842 2269.3751 3142.5902 0.0000 -175843.0308 20469.3648 620.7648 0.0000 30748.1667 -116945.1849 298.9553 -147693.3516 -116898.7558 298.2339 -47.4513 -31.4089 505793.6166 5.1183 4.7727
ENERGY: 7000 1580.4044 2307.5529 3140.4832 0.0000 -175459.7068 19995.0072 627.0759 0.0000 30773.8654 -117035.3176 299.2052 -147809.1831 -116986.1016 298.5922 -99.7426 -47.4996 503820.1826 0.4861 0.6441
ENERGY: 8000 1569.3440 2347.4496 3147.0535 0.0000 -175652.5089 20219.7741 646.3196 0.0000 30830.0047 -116892.5634 299.7510 -147722.5681 -116847.0825 300.4348 31.7198 16.5937 503259.7241 1.9525 1.9557
ENERGY: 9000 1586.6362 2330.6545 3172.3381 0.0000 -175226.4745 19892.7107 656.3438 0.0000 30861.9040 -116725.8872 300.0612 -147587.7911 -116679.9241 299.9706 -62.0999 -32.7585 500598.2142 -21.0770 -21.1805
ENERGY: 10000 1606.4280 2311.8633 3127.3318 0.0000 -175845.4865 20269.9386 657.5329 0.0000 30999.4413 -116872.9505 301.3984 -147872.3918 -116821.6809 300.4872 -128.7918 -9.1388 500695.0604 -10.8538 -11.3924
TCL: Setting parameter constraintScaling to 2.5
TCL: Running for 5000 steps
ETITLE: TS BOND ANGLE DIHED IMPRP ELECT VDW BOUNDARY MISC KINETIC TOTAL TEMP POTENTIAL TOTAL3 TEMPAVG PRESSURE GPRESSURE VOLUME PRESSAVG GPRESSAVG
ENERGY: 10000 1606.4280 2311.8633 3127.3318 0.0000 -175845.4865 20269.9386 328.7665 0.0000 30997.4057 -117203.7526 301.3786 -148201.1583 -117160.1141 301.3786 -87.4760 31.7988 500695.0604 -87.4760 31.7988
ENERGY: 11000 1628.4540 2391.0275 3159.7022 0.0000 -175365.2479 20021.0107 513.4083 0.0000 30737.0241 -116914.6211 298.8470 -147651.6452 -116869.4666 299.6872 38.3717 -21.4893 501546.2734 0.0465 -0.8088
ENERGY: 12000 1675.8310 2305.8019 3141.5837 0.0000 -175937.7208 20434.2703 501.1495 0.0000 30861.9245 -117017.1601 300.0614 -147879.0846 -116983.8115 299.7230 -39.1258 -27.3963 502404.0333 10.1008 10.8673
ENERGY: 13000 1630.9992 2300.8699 3184.0021 0.0000 -175727.8595 20111.5001 508.9794 0.0000 31094.0198 -116897.4890 302.3180 -147991.5088 -116845.3028 299.8793 2.5080 9.1540 502082.5212 -11.1170 -10.9729
ENERGY: 14000 1599.0277 2320.0593 3183.8185 0.0000 -175683.6734 20113.6266 505.8117 0.0000 30863.4631 -117097.8666 300.0763 -147961.3297 -117058.3475 299.9861 18.6984 -3.9316 501574.6645 0.0469 -0.2272
ENERGY: 15000 1662.7181 2321.2283 3173.9172 0.0000 -175424.5959 20044.7294 497.7081 0.0000 31071.2496 -116653.0453 302.0966 -147724.2950 -116625.7086 301.4254 -46.6600 -9.8869 500242.1101 -0.1478 -0.4220
TCL: Setting parameter constraintScaling to 1.25
TCL: Running for 5000 steps
ETITLE: TS BOND ANGLE DIHED IMPRP ELECT VDW BOUNDARY MISC KINETIC TOTAL TEMP POTENTIAL TOTAL3 TEMPAVG PRESSURE GPRESSURE VOLUME PRESSAVG GPRESSAVG
ENERGY: 15000 1662.7181 2321.2283 3173.9172 0.0000 -175424.5960 20044.7294 248.8540 0.0000 31069.1999 -116903.9491 302.0767 -147973.1490 -116861.2787 302.0767 -153.2034 -113.1740 500242.1101 -153.2034 -113.1740
ENERGY: 16000 1594.7238 2381.1761 3195.8671 0.0000 -175249.8891 19673.9691 370.1598 0.0000 30880.8144 -117153.1790 300.2450 -148033.9933 -117099.3975 299.9540 45.6403 13.3669 498121.5362 -12.2857 -12.1161
ENERGY: 17000 1619.4441 2380.3244 3173.2718 0.0000 -175771.2497 20078.7903 410.3855 0.0000 30905.0333 -117204.0004 300.4805 -148109.0337 -117162.9362 299.5129 -59.0620 -41.2870 497326.4791 -8.7960 -9.1130
ENERGY: 18000 1652.5249 2358.1245 3178.8762 0.0000 -175274.7266 19879.0562 397.2393 0.0000 30733.9569 -117074.9486 298.8172 -147808.9055 -117037.7925 299.5316 -137.8032 8.0112 499359.2644 13.3581 13.1291
ENERGY: 19000 1616.6202 2374.1109 3173.5481 0.0000 -175465.0221 19945.2652 401.2260 0.0000 30815.4751 -117138.7765 299.6098 -147954.2516 -117080.6975 299.4598 -128.1579 -33.1782 499529.0003 -7.3305 -6.9880
ENERGY: 20000 1604.9203 2416.9325 3207.3458 0.0000 -176201.2205 20350.0890 422.4352 0.0000 30921.1623 -117278.3354 300.6373 -148199.4977 -117233.3292 299.5957 -84.7099 -64.3883 497961.9557 -14.8042 -14.5253
TCL: Setting parameter constraintScaling to 0.625
TCL: Running for 5000 steps
ETITLE: TS BOND ANGLE DIHED IMPRP ELECT VDW BOUNDARY MISC KINETIC TOTAL TEMP POTENTIAL TOTAL3 TEMPAVG PRESSURE GPRESSURE VOLUME PRESSAVG GPRESSAVG
ENERGY: 20000 1604.9203 2416.9325 3207.3458 0.0000 -176201.2205 20350.0890 211.2176 0.0000 30919.1034 -117491.6119 300.6173 -148410.7153 -117446.1624 300.6173 -43.7293 -14.5316 497961.9557 -43.7293 -14.5316
ENERGY: 21000 1673.5617 2418.1076 3178.0071 0.0000 -176163.6734 20372.8779 313.2708 0.0000 30735.7970 -117472.0514 298.8351 -148207.8484 -117427.4428 299.6260 24.8916 10.4573 497619.2642 -4.4197 -4.1386
ENERGY: 22000 1690.3127 2384.9288 3192.2846 0.0000 -176018.6831 20166.7741 297.0895 0.0000 30784.2454 -117503.0479 299.3061 -148287.2933 -117467.3162 298.5923 2.2927 30.0465 498218.5062 4.3669 4.2029
ENERGY: 23000 1575.5247 2383.1243 3205.4543 0.0000 -175772.4942 20011.5702 322.9956 0.0000 30754.6425 -117519.1825 299.0183 -148273.8250 -117474.2374 298.2481 1.8222 -11.7875 498855.0334 -8.1706 -8.5032
ENERGY: 24000 1633.3157 2354.8250 3192.9349 0.0000 -175846.6620 20066.4696 304.8559 0.0000 30880.6034 -117413.6575 300.2430 -148294.2609 -117365.0346 298.1393 -86.5307 -40.5070 499240.1383 13.7234 13.6494
ENERGY: 25000 1681.3713 2478.4207 3183.1796 0.0000 -175734.3501 20142.6301 307.2996 0.0000 30973.0320 -116968.4167 301.1416 -147941.4487 -116918.4619 300.5247 65.7747 77.4579 499710.9718 -0.7661 -0.2353
TCL: Setting parameter constraintScaling to 0.3125
TCL: Running for 5000 steps
ETITLE: TS BOND ANGLE DIHED IMPRP ELECT VDW BOUNDARY MISC KINETIC TOTAL TEMP POTENTIAL TOTAL3 TEMPAVG PRESSURE GPRESSURE VOLUME PRESSAVG GPRESSAVG
ENERGY: 25000 1681.3713 2478.4207 3183.1796 0.0000 -175734.3501 20142.6301 153.6498 0.0000 30970.9794 -117124.1191 301.1217 -148095.0985 -117083.0323 301.1217 43.8989 65.6493 499710.9718 43.8989 65.6493
ENERGY: 26000 1624.1701 2385.3657 3228.6559 0.0000 -175686.2079 20068.5732 230.0054 0.0000 31022.1934 -117127.2440 301.6196 -148149.4375 -117085.1432 301.3360 -69.6408 -22.7107 499200.4285 -1.5440 -1.2306
ENERGY: 27000 1620.4699 2450.5314 3209.5727 0.0000 -175716.4936 20159.1239 230.5001 0.0000 30933.0014 -117113.2941 300.7524 -148046.2955 -117073.3853 300.6640 60.6912 79.3157 497718.2962 -15.5623 -16.1750
ENERGY: 28000 1720.8755 2394.2717 3226.1784 0.0000 -176028.2287 20219.7049 245.2407 0.0000 30788.1669 -117433.7905 299.3443 -148221.9575 -117379.4122 299.2023 -101.1549 -39.0714 498208.9936 -4.1749 -4.0031
ENERGY: 29000 1647.6776 2442.1739 3224.6492 0.0000 -175966.7297 20311.9211 234.9946 0.0000 30782.9825 -117322.3308 299.2939 -148105.3133 -117281.6526 300.4482 35.8905 84.3625 498170.8351 4.4378 4.3982
ENERGY: 30000 1592.0317 2379.3534 3258.1715 0.0000 -175669.8342 19923.7940 252.6217 0.0000 30936.1004 -117327.7615 300.7826 -148263.8619 -117283.1788 299.9806 -70.7631 -20.7876 497012.5365 -1.9570 -2.5590
TCL: Setting parameter constraintScaling to 0.15625
TCL: Running for 5000 steps
ETITLE: TS BOND ANGLE DIHED IMPRP ELECT VDW BOUNDARY MISC KINETIC TOTAL TEMP POTENTIAL TOTAL3 TEMPAVG PRESSURE GPRESSURE VOLUME PRESSAVG GPRESSAVG
ENERGY: 30000 1592.0317 2379.3534 3258.1715 0.0000 -175669.8342 19923.7940 126.3109 0.0000 30934.0399 -117456.1329 300.7625 -148390.1728 -117413.5860 300.7625 -102.0088 -52.4123 497012.5365 -102.0088 -52.4123
ENERGY: 31000 1650.8763 2377.2067 3243.7030 0.0000 -175782.3348 19937.3502 186.9362 0.0000 30823.2815 -117562.9810 299.6857 -148386.2625 -117528.7489 300.5372 0.3438 -31.9220 496582.8898 4.1268 4.2252
ENERGY: 32000 1674.6893 2457.7435 3204.0207 0.0000 -175572.7551 19916.3702 198.9514 0.0000 31006.0295 -117114.9505 301.4625 -148120.9799 -117057.6352 300.7562 -60.3495 -46.4509 495888.7676 4.1769 3.6042
ENERGY: 33000 1710.0594 2436.2192 3231.3410 0.0000 -175700.9783 20096.9653 203.7555 0.0000 30877.2069 -117145.4310 300.2100 -148022.6379 -117110.3170 300.9446 18.0849 -49.2566 497160.8899 3.3647 3.6759
ENERGY: 34000 1674.2304 2395.4776 3208.0812 0.0000 -175667.9459 20047.9839 214.3263 0.0000 30695.8836 -117431.9629 298.4470 -148127.8465 -117394.5354 299.9968 -4.0840 19.8507 496540.6942 1.7636 1.6753
ENERGY: 35000 1645.8206 2326.7652 3224.4598 0.0000 -175556.9079 20128.4806 206.8706 0.0000 30842.7523 -117181.7587 299.8750 -148024.5110 -117118.9898 299.5086 62.4362 37.8141 497757.1785 12.0825 12.3983
TCL: Setting parameter constraintScaling to 0.078125
TCL: Running for 5000 steps
ETITLE: TS BOND ANGLE DIHED IMPRP ELECT VDW BOUNDARY MISC KINETIC TOTAL TEMP POTENTIAL TOTAL3 TEMPAVG PRESSURE GPRESSURE VOLUME PRESSAVG GPRESSAVG
ENERGY: 35000 1645.8206 2326.7652 3224.4598 0.0000 -175556.9079 20128.4806 103.4353 0.0000 30840.7041 -117287.2423 299.8551 -148127.9464 -117242.5691 299.8551 62.3751 37.6850 497757.1785 62.3751 37.6850
ENERGY: 36000 1607.7386 2435.9414 3214.7885 0.0000 -175678.7017 20066.7884 141.7659 0.0000 30834.0034 -117377.6755 299.7899 -148211.6789 -117328.9398 299.7342 59.1204 76.3438 497329.0566 5.3829 5.0041
ENERGY: 37000 1654.8332 2455.2923 3211.7784 0.0000 -175800.2125 19996.9158 143.5035 0.0000 31030.7669 -117307.1224 301.7030 -148337.8893 -117260.0896 300.2742 -214.6377 -150.9866 496045.7032 -13.7362 -14.1473
ENERGY: 38000 1697.3011 2398.0855 3243.5231 0.0000 -175720.4086 19811.7393 155.2099 0.0000 31059.1333 -117355.4165 301.9788 -148414.5497 -117316.4372 300.6515 -24.5795 -82.4923 495075.5394 2.1561 1.6940
ENERGY: 39000 1692.1054 2434.6807 3219.5981 0.0000 -175858.4524 20141.1105 162.5251 0.0000 30701.7205 -117506.7121 298.5038 -148208.4326 -117469.6726 300.3732 3.0650 37.1992 496326.2967 -0.0132 0.2833
ENERGY: 40000 1638.8454 2383.1959 3209.2309 0.0000 -175609.1528 19848.8095 169.8183 0.0000 30853.3965 -117505.8563 299.9785 -148359.2528 -117452.8089 299.7674 -101.0374 6.0468 496619.9935 6.8453 6.8141
TCL: Setting parameter constraintScaling to 0.0390625
TCL: Running for 5000 steps
ETITLE: TS BOND ANGLE DIHED IMPRP ELECT VDW BOUNDARY MISC KINETIC TOTAL TEMP POTENTIAL TOTAL3 TEMPAVG PRESSURE GPRESSURE VOLUME PRESSAVG GPRESSAVG
ENERGY: 40000 1638.8454 2383.1959 3209.2309 0.0000 -175609.1528 19848.8095 84.9092 0.0000 30851.3456 -117592.8163 299.9585 -148444.1620 -117548.4077 299.9585 -142.0411 -30.9946 496619.9935 -142.0411 -30.9946
ENERGY: 41000 1612.7852 2448.7638 3193.7353 0.0000 -175972.6334 20053.1160 108.7665 0.0000 30958.8145 -117596.6522 301.0034 -148555.4667 -117557.6476 300.2127 30.7833 38.7079 496060.9886 -8.6199 -8.5053
ENERGY: 42000 1619.8270 2429.5463 3249.3424 0.0000 -176067.3038 20098.9486 131.2307 0.0000 30730.6289 -117807.7801 298.7848 -148538.4089 -117764.6739 299.2910 43.1814 30.1400 496236.3352 -2.2338 -1.5561
ENERGY: 43000 1600.0669 2355.5689 3220.6499 0.0000 -176009.0022 20085.7716 136.6680 0.0000 30825.3316 -117784.9453 299.7056 -148610.2769 -117741.1883 299.5304 97.4335 36.9026 496873.9668 7.6565 7.9511
ENERGY: 44000 1685.5968 2423.8864 3192.0249 0.0000 -176085.6458 20147.2603 136.0474 0.0000 30918.8928 -117581.9373 300.6153 -148500.8301 -117529.9831 300.1273 -7.9714 3.3110 497725.5773 2.2110 2.3288
ENERGY: 45000 1577.3161 2341.6674 3231.1233 0.0000 -175605.4329 20172.6944 126.1359 0.0000 30863.7036 -117292.7924 300.0787 -148156.4959 -117250.4839 300.2147 32.2272 88.3653 498562.6172 4.1671 4.3475
TCL: Setting parameter constraintScaling to 0.01953125
TCL: Running for 5000 steps
ETITLE: TS BOND ANGLE DIHED IMPRP ELECT VDW BOUNDARY MISC KINETIC TOTAL TEMP POTENTIAL TOTAL3 TEMPAVG PRESSURE GPRESSURE VOLUME PRESSAVG GPRESSAVG
ENERGY: 45000 1577.3161 2341.6674 3231.1233 0.0000 -175605.4329 20172.6944 63.0679 0.0000 30861.6294 -117357.9344 300.0585 -148219.5639 -117315.5907 300.0585 20.8675 71.0348 498562.6172 20.8675 71.0348
ENERGY: 46000 1604.8521 2428.3989 3219.3844 0.0000 -175744.5630 20090.1696 82.0769 0.0000 30802.9031 -117516.7780 299.4875 -148319.6810 -117452.6037 299.8430 -41.3936 24.3099 497561.4724 -6.8918 -7.4716
ENERGY: 47000 1645.2898 2365.1012 3217.1219 0.0000 -175799.8051 19952.0790 84.8160 0.0000 30805.8243 -117729.5731 299.5159 -148535.3974 -117674.4806 298.9933 -12.9182 -47.3492 496613.5828 -8.9288 -9.2839
ENERGY: 48000 1651.6277 2441.4910 3178.8236 0.0000 -175685.0016 19945.6412 85.1532 0.0000 30788.5424 -117593.7225 299.3479 -148382.2649 -117553.0411 299.7399 -46.0170 44.9354 496799.0068 9.1649 8.7176
ENERGY: 49000 1648.0644 2481.5310 3191.9092 0.0000 -176070.6966 19973.3498 95.2723 0.0000 30955.5622 -117725.0078 300.9718 -148680.5700 -117681.4023 300.2001 -104.3398 -44.8418 496490.6403 -4.1278 -3.6524
ENERGY: 50000 1641.2517 2334.3227 3186.9101 0.0000 -175881.6422 19876.3811 99.2258 0.0000 30840.7814 -117902.7693 299.8558 -148743.5508 -117847.8399 299.3020 -54.6471 -36.4201 496202.5217 1.6273 1.6411
TCL: Setting parameter constraintScaling to 0
TCL: Running for 5000 steps
ETITLE: TS BOND ANGLE DIHED IMPRP ELECT VDW BOUNDARY MISC KINETIC TOTAL TEMP POTENTIAL TOTAL3 TEMPAVG PRESSURE GPRESSURE VOLUME PRESSAVG GPRESSAVG
ENERGY: 50000 1641.2517 2334.3227 3186.9101 0.0000 -175881.6422 19876.3811 0.0000 0.0000 30838.7100 -118004.0666 299.8357 -148842.7766 -117958.6863 299.8357 -72.3136 -49.7994 496202.5217 -72.3136 -49.7994
ENERGY: 51000 1646.7794 2427.5855 3177.7621 0.0000 -175773.3096 19988.8499 0.0000 0.0000 30723.6216 -117808.7111 298.7167 -148532.3327 -117764.1764 299.0843 -130.7509 -29.0701 496301.3752 -5.1176 -5.0040
ENERGY: 52000 1638.5537 2436.1119 3210.5009 0.0000 -176073.1044 20204.8963 0.0000 0.0000 30681.4625 -117901.5792 298.3068 -148583.0416 -117850.4091 299.9709 -90.1107 -27.3465 496259.5980 -0.3723 -0.0811
ENERGY: 53000 1604.8487 2405.1152 3234.2840 0.0000 -176404.9084 20308.7110 0.0000 0.0000 30803.1921 -118048.7575 299.4903 -148851.9495 -118011.9314 299.1147 55.6054 81.0968 496661.3221 4.6746 4.3354
ENERGY: 54000 1633.9609 2396.4415 3213.1009 0.0000 -176020.9068 20089.6590 0.0000 0.0000 30853.8490 -117833.8953 299.9829 -148687.7444 -117780.8044 299.8994 6.7206 97.2669 498062.2378 -6.9931 -6.5475
ENERGY: 55000 1680.2813 2375.6217 3260.9759 0.0000 -176187.5511 20089.6947 0.0000 0.0000 30830.7158 -117950.2618 299.7579 -148780.9775 -117913.4818 299.1735 -92.8649 86.2941 496462.8355 0.2555 1.1039
