Info: SIMULATION PARAMETERS:
Info: TIMESTEP               2
Info: NUMBER OF STEPS        0
Info: STEPS PER CYCLE        10
Info: PERIODIC CELL BASIS 1  72.449 0 0
Info: PERIODIC CELL BASIS 2  0 93.247 0
Info: PERIODIC CELL BASIS 3  0 0 79.185
Info: PERIODIC CELL CENTER   -0.248 -0.156 -0.047
Info: WRAPPING WATERS AROUND PERIODIC BOUNDARIES ON OUTPUT.
Info: WRAPPING ALL CLUSTERS AROUND PERIODIC BOUNDARIES ON OUTPUT.
Info: FIRST LDB TIMESTEP     50
Info: LAST LDB TIMESTEP     -1
Info: HOM BACKGROUND SCALING 1
Info: PME BACKGROUND SCALING 1
Info: MIN ATOMS PER PATCH    40
Info: INITIAL TEMPERATURE    0
Info: CENTER OF MASS MOVING INITIALLY? NO
Info: DIELECTRIC             1
Info: EXCLUDE                SCALED ONE-FOUR
Info: 1-4 ELECTROSTATICS SCALED BY 0.833333
Info: MODIFIED 1-4 VDW PARAMETERS WILL BE USED
Info: NO DCD TRAJECTORY OUTPUT
Info: NO EXTENDED SYSTEM TRAJECTORY OUTPUT
Info: NO VELOCITY DCD OUTPUT
Info: NO FORCE DCD OUTPUT
Info: OUTPUT FILENAME        ../replicas/rep96/equilibration/eq0
Info: NO RESTART FILE
Info: SWITCHING ACTIVE
Info: SWITCHING ON           10
Info: SWITCHING OFF          12
Info: PAIRLIST DISTANCE      13.5
Info: PAIRLIST SHRINK RATE   0.01
Info: PAIRLIST GROW RATE     0.01
Info: PAIRLIST TRIGGER       0.3
Info: PAIRLISTS PER CYCLE    2
Info: PAIRLISTS ENABLED
Info: MARGIN                 0
Info: HYDROGEN GROUP CUTOFF  2.5
Info: PATCH DIMENSION        16
Info: ENERGY OUTPUT STEPS    500
Info: CROSSTERM ENERGY INCLUDED IN DIHEDRAL
Info: TIMING OUTPUT STEPS    5000
Info: PRESSURE OUTPUT STEPS  500
Info: HARMONIC CONSTRAINTS ACTIVE
Info: HARMONIC CONS EXP      2
Info: HARMONIC CONS SCALING  10
Info: CONJUGATE GRADIENT MINIMIZATION ACTIVE
Info: LINE MINIMIZATION GOAL = 0.001
Info: BABY STEP SIZE = 0.01
Info: TINY STEP SIZE = 1e-06
Info: PARTICLE MESH EWALD (PME) ACTIVE
Info: PME TOLERANCE               1e-06
Info: PME EWALD COEFFICIENT       0.257952
Info: PME INTERPOLATION ORDER     4
Info: PME GRID DIMENSIONS         80 96 80
Info: PME MAXIMUM GRID SPACING    1
Info: FULL ELECTROSTATIC EVALUATION FREQUENCY      2
Info: USING VERLET I (r-RESPA) MTS SCHEME.
Info: C1 SPLITTING OF LONG RANGE ELECTROSTATICS
Info: PLACING ATOMS IN PATCHES BY HYDROGEN GROUPS
Info: RIGID BONDS TO HYDROGEN : ALL
Info:         ERROR TOLERANCE : 1e-05
Info:          MAX ITERATIONS : 100
Info: RIGID WATER USING SETTLE ALGORITHM
Info: RANDOM NUMBER SEED     1503691275
Info: USE HYDROGEN BONDS?    NO
Info: Using AMBER format force field!
Info: AMBER PARM FILE        ../build/complex.top
Info: COORDINATE PDB         ../build/complex.pdb
Info: Exclusions in PARM file will be ignored!
Info: SCNB (VDW SCALING)     2
Info: USING ARITHMETIC MEAN TO COMBINE L-J SIGMA PARAMETERS
Info: SUMMARY OF PARAMETERS:
Info: 71 BONDS
Info: 145 ANGLES
Info:   145 HARMONIC
Info:   0 COSINE-BASED
Info: 76 DIHEDRAL
Info: 0 IMPROPER
Info: 0 CROSSTERM
Info: 0 VDW
Info: 190 VDW_PAIRS
Info: 0 NBTHOLE_PAIRS
Info: STRUCTURE SUMMARY:
Info: 49394 ATOMS
Info: 49448 BONDS
Info: 8698 ANGLES
Info: 18780 DIHEDRALS
Info: 0 IMPROPERS
Info: 0 CROSSTERMS
Info: 0 EXCLUSIONS
Info: 2336 CONSTRAINTS
Info: 47058 RIGID BONDS
Info: 101124 DEGREES OF FREEDOM
Info: 17225 HYDROGEN GROUPS
Info: 4 ATOMS IN LARGEST HYDROGEN GROUP
Info: 17225 MIGRATION GROUPS
Info: 4 ATOMS IN LARGEST MIGRATION GROUP
Info: TOTAL MASS = 301478 amu
Info: TOTAL CHARGE = 1.00115e-05 e
Info: MASS DENSITY = 0.935846 g/cm^3
Info: ATOM DENSITY = 0.0923345 atoms/A^3
Info: ADDED 70656 IMPLICIT EXCLUSIONS
Info: NONBONDED TABLE R-SQUARED SPACING: 0.0625
Info: NONBONDED TABLE SIZE: 769 POINTS
Info: REMOVING COM VELOCITY 0 0 0
TCL: Minimizing for 100 steps
ETITLE: TS BOND ANGLE DIHED IMPRP ELECT VDW BOUNDARY MISC KINETIC TOTAL TEMP POTENTIAL TOTAL3 TEMPAVG PRESSURE GPRESSURE VOLUME PRESSAVG GPRESSAVG
ENERGY: 0 155.4176 1012.2698 2855.7272 0.0000 -154496.7910 207729.2052 0.0468 0.0000 0.0000 57255.8756 0.0000 57255.8756 57255.8756 0.0000 116350.2532 86546.1670 534946.2959 116350.2532 86546.1670
ENERGY: 20 304.7549 935.7911 2893.4663 0.0000 -158672.9405 17936.6595 143.9454 0.0000 0.0000 -136458.3232 0.0000 -136458.3232 -136458.3232 0.0000 16523.9388 -239.4557 534946.2959 16523.9388 -239.4557
ENERGY: 40 198.7412 799.5723 2896.9273 0.0000 -162811.4529 16417.9537 221.3029 0.0000 0.0000 -142276.9555 0.0000 -142276.9555 -142276.9555 0.0000 15011.2704 -2135.4696 534946.2959 15011.2704 -2135.4696
ENERGY: 60 130.5287 715.3441 2898.2165 0.0000 -167496.1516 15446.7548 315.2795 0.0000 0.0000 -147990.0281 0.0000 -147990.0281 -147990.0281 0.0000 13793.8850 -3799.3969 534946.2959 13793.8850 -3799.3969
ENERGY: 80 431.2757 765.6312 2904.3783 0.0000 -169937.5219 15121.1532 372.0121 0.0000 0.0000 -150343.0714 0.0000 -150343.0714 -150343.0714 0.0000 13270.3328 -4577.2424 534946.2959 13270.3328 -4577.2424
ENERGY: 100 119.3891 710.0605 2905.2588 0.0000 -171259.7142 14991.7867 387.3612 0.0000 0.0000 -152145.8580 0.0000 -152145.8580 -152145.8580 0.0000 13056.2653 -4908.1731 534946.2959 13056.2653 -4908.1731
TCL: Setting parameter constraintScaling to 5.0
TCL: Minimizing for 100 steps
ETITLE: TS BOND ANGLE DIHED IMPRP ELECT VDW BOUNDARY MISC KINETIC TOTAL TEMP POTENTIAL TOTAL3 TEMPAVG PRESSURE GPRESSURE VOLUME PRESSAVG GPRESSAVG
ENERGY: 100 119.3891 710.0605 2905.2588 0.0000 -171259.7142 14991.7867 193.6806 0.0000 0.0000 -152339.5386 0.0000 -152339.5386 -152339.5386 0.0000 13672.7714 -23021.8189 534946.2959 13672.7714 -23021.8189
ENERGY: 120 166.4581 692.2094 2910.8259 0.0000 -172914.7684 14833.3515 281.9273 0.0000 0.0000 -154029.9962 0.0000 -154029.9962 -154029.9962 0.0000 13225.2907 -4913.0028 534946.2959 13225.2907 -4913.0028
ENERGY: 140 225.1731 696.9113 2912.9615 0.0000 -174149.6839 14732.6656 321.1936 0.0000 0.0000 -155260.7789 0.0000 -155260.7789 -155260.7789 0.0000 12997.5929 -5265.7145 534946.2959 12997.5929 -5265.7145
ENERGY: 160 270.4560 684.2227 2923.3053 0.0000 -176286.1519 14758.1988 383.3167 0.0000 0.0000 -157266.6524 0.0000 -157266.6524 -157266.6524 0.0000 12739.3441 -5745.0416 534946.2959 12739.3441 -5745.0416
ENERGY: 180 172.6074 724.9583 2929.2192 0.0000 -179193.8304 15054.3814 478.4003 0.0000 0.0000 -159834.2639 0.0000 -159834.2639 -159834.2639 0.0000 12525.3228 -6233.1604 534946.2959 12525.3228 -6233.1604
ENERGY: 200 239.9014 694.0912 2941.4140 0.0000 -181559.1905 15587.6920 546.3492 0.0000 0.0000 -161549.7427 0.0000 -161549.7427 -161549.7427 0.0000 12582.6905 -6424.5807 534946.2959 12582.6905 -6424.5807
TCL: Setting parameter constraintScaling to 2.5
TCL: Minimizing for 100 steps
ETITLE: TS BOND ANGLE DIHED IMPRP ELECT VDW BOUNDARY MISC KINETIC TOTAL TEMP POTENTIAL TOTAL3 TEMPAVG PRESSURE GPRESSURE VOLUME PRESSAVG GPRESSAVG
ENERGY: 200 239.9014 694.0912 2941.4140 0.0000 -181559.1905 15587.6920 273.1746 0.0000 0.0000 -161822.9173 0.0000 -161822.9173 -161822.9173 0.0000 13229.6984 -25655.7852 534946.2959 13229.6984 -25655.7852
ENERGY: 220 251.1435 678.8856 2933.0010 0.0000 -182080.4758 15472.4760 337.8202 0.0000 0.0000 -162407.1496 0.0000 -162407.1496 -162407.1496 0.0000 12970.8550 -6091.4391 534946.2959 12970.8550 -6091.4391
ENERGY: 240 139.8419 665.7362 2928.6587 0.0000 -182460.3399 15495.1592 343.1706 0.0000 0.0000 -162887.7734 0.0000 -162887.7734 -162887.7734 0.0000 13035.3568 -6105.8818 534946.2959 13035.3568 -6105.8818
ENERGY: 260 233.1916 706.5714 2922.4208 0.0000 -183766.8275 15760.6222 380.6026 0.0000 0.0000 -163763.4188 0.0000 -163763.4188 -163763.4188 0.0000 13013.9596 -6241.0500 534946.2959 13013.9596 -6241.0500
ENERGY: 280 128.1498 697.3415 2917.4502 0.0000 -185313.3491 16187.8283 449.8622 0.0000 0.0000 -164932.7171 0.0000 -164932.7171 -164932.7171 0.0000 13134.4350 -6332.7832 534946.2959 13134.4350 -6332.7832
ENERGY: 300 118.1580 637.4399 2916.5461 0.0000 -186072.9919 16439.1616 483.2981 0.0000 0.0000 -165478.3881 0.0000 -165478.3881 -165478.3881 0.0000 13202.5236 -6343.8501 534946.2959 13202.5236 -6343.8501
TCL: Setting parameter constraintScaling to 1.25
TCL: Minimizing for 100 steps
ETITLE: TS BOND ANGLE DIHED IMPRP ELECT VDW BOUNDARY MISC KINETIC TOTAL TEMP POTENTIAL TOTAL3 TEMPAVG PRESSURE GPRESSURE VOLUME PRESSAVG GPRESSAVG
ENERGY: 300 118.1580 637.4399 2916.5461 0.0000 -186072.9919 16439.1616 241.6491 0.0000 0.0000 -165720.0371 0.0000 -165720.0371 -165720.0371 0.0000 13651.9648 -26351.3329 534946.2959 13651.9648 -26351.3329
ENERGY: 320 139.3476 626.9309 2910.3558 0.0000 -186766.0028 16614.6896 273.7363 0.0000 0.0000 -166200.9427 0.0000 -166200.9427 -166200.9427 0.0000 13648.8372 -5972.1490 534946.2959 13648.8372 -5972.1490
ENERGY: 340 140.5169 621.7058 2909.3913 0.0000 -187441.5729 16831.1274 299.7423 0.0000 0.0000 -166639.0892 0.0000 -166639.0892 -166639.0892 0.0000 13678.0703 -6002.0076 534946.2959 13678.0703 -6002.0076
ENERGY: 360 196.6887 629.7711 2903.9939 0.0000 -188741.4167 17273.5461 342.7130 0.0000 0.0000 -167394.7039 0.0000 -167394.7039 -167394.7039 0.0000 13785.7826 -6031.3810 534946.2959 13785.7826 -6031.3810
ENERGY: 380 194.2511 694.9065 2903.1977 0.0000 -189897.4433 17673.1370 364.5329 0.0000 0.0000 -168067.4179 0.0000 -168067.4179 -168067.4179 0.0000 14057.8890 -5937.8068 534946.2959 14057.8890 -5937.8068
ENERGY: 400 175.3433 627.6427 2901.7248 0.0000 -190236.3048 17787.1849 373.3850 0.0000 0.0000 -168371.0242 0.0000 -168371.0242 -168371.0242 0.0000 14003.5474 -5991.6206 534946.2959 14003.5474 -5991.6206
TCL: Setting parameter constraintScaling to 0.625
TCL: Minimizing for 100 steps
ETITLE: TS BOND ANGLE DIHED IMPRP ELECT VDW BOUNDARY MISC KINETIC TOTAL TEMP POTENTIAL TOTAL3 TEMPAVG PRESSURE GPRESSURE VOLUME PRESSAVG GPRESSAVG
ENERGY: 400 175.3433 627.6427 2901.7248 0.0000 -190236.3049 17787.1849 186.6925 0.0000 0.0000 -168557.7167 0.0000 -168557.7167 -168557.7167 0.0000 14294.0954 -26688.0594 534946.2959 14294.0954 -26688.0594
ENERGY: 420 141.2620 658.6459 2895.3093 0.0000 -190626.4748 17900.3371 206.0844 0.0000 0.0000 -168824.8361 0.0000 -168824.8361 -168824.8361 0.0000 14365.6499 -5699.0389 534946.2959 14365.6499 -5699.0389
ENERGY: 440 209.1712 653.3836 2890.1553 0.0000 -191367.7269 18150.4825 231.5502 0.0000 0.0000 -169232.9841 0.0000 -169232.9841 -169232.9841 0.0000 14437.1060 -5710.8137 534946.2959 14437.1060 -5710.8137
ENERGY: 460 203.1487 645.5042 2887.8732 0.0000 -192889.6815 18714.2633 284.1514 0.0000 0.0000 -170154.7408 0.0000 -170154.7408 -170154.7408 0.0000 14559.3165 -5732.4988 534946.2959 14559.3165 -5732.4988
ENERGY: 480 150.2027 638.2060 2881.0825 0.0000 -193811.1136 19106.8004 313.8770 0.0000 0.0000 -170720.9450 0.0000 -170720.9450 -170720.9450 0.0000 14757.6645 -5647.9085 534946.2959 14757.6645 -5647.9085
ENERGY: 500 220.7224 727.4007 2882.6032 0.0000 -194643.5113 19439.6349 311.2093 0.0000 0.0000 -171061.9409 0.0000 -171061.9409 -171061.9409 0.0000 14992.7398 -5537.5948 534946.2959 14992.7398 -5537.5948
TCL: Setting parameter constraintScaling to 0.3125
TCL: Minimizing for 100 steps
ETITLE: TS BOND ANGLE DIHED IMPRP ELECT VDW BOUNDARY MISC KINETIC TOTAL TEMP POTENTIAL TOTAL3 TEMPAVG PRESSURE GPRESSURE VOLUME PRESSAVG GPRESSAVG
ENERGY: 500 220.7224 727.4007 2882.6032 0.0000 -194643.5113 19439.6349 155.6047 0.0000 0.0000 -171217.5456 0.0000 -171217.5456 -171217.5456 0.0000 15188.9012 -26823.7733 534946.2959 15188.9012 -26823.7733
ENERGY: 520 160.1999 665.8067 2880.8168 0.0000 -194965.6108 19521.4879 169.5703 0.0000 0.0000 -171567.7292 0.0000 -171567.7292 -171567.7292 0.0000 15134.3307 -5406.2795 534946.2959 15134.3307 -5406.2795
ENERGY: 540 182.3723 668.7721 2874.4437 0.0000 -195809.8926 19862.0113 199.0626 0.0000 0.0000 -172023.2307 0.0000 -172023.2307 -172023.2307 0.0000 15200.8577 -5408.1352 534946.2959 15200.8577 -5408.1352
ENERGY: 560 162.0231 661.7305 2871.0415 0.0000 -195985.5434 19899.7210 200.4703 0.0000 0.0000 -172190.5569 0.0000 -172190.5569 -172190.5569 0.0000 15292.7300 -5367.1534 534946.2959 15292.7300 -5367.1534
ENERGY: 580 158.2312 662.7567 2868.1161 0.0000 -196140.9485 19946.7956 199.9629 0.0000 0.0000 -172305.0860 0.0000 -172305.0860 -172305.0860 0.0000 15311.3029 -5358.5812 534946.2959 15311.3029 -5358.5812
ENERGY: 600 173.9792 678.3496 2867.9766 0.0000 -196675.6119 20197.1598 205.7997 0.0000 0.0000 -172552.3470 0.0000 -172552.3470 -172552.3470 0.0000 15448.1576 -5294.9136 534946.2959 15448.1576 -5294.9136
TCL: Setting parameter constraintScaling to 0.15625
TCL: Minimizing for 100 steps
ETITLE: TS BOND ANGLE DIHED IMPRP ELECT VDW BOUNDARY MISC KINETIC TOTAL TEMP POTENTIAL TOTAL3 TEMPAVG PRESSURE GPRESSURE VOLUME PRESSAVG GPRESSAVG
ENERGY: 600 173.9792 678.3496 2867.9766 0.0000 -196675.6119 20197.1598 102.8998 0.0000 0.0000 -172655.2469 0.0000 -172655.2469 -172655.2469 0.0000 15564.5687 -26928.5181 534946.2959 15564.5687 -26928.5181
ENERGY: 620 158.2483 654.1643 2866.2696 0.0000 -196862.9845 20213.0850 106.2443 0.0000 0.0000 -172864.9729 0.0000 -172864.9729 -172864.9729 0.0000 15522.4652 -5224.0111 534946.2959 15522.4652 -5224.0111
ENERGY: 640 172.4358 664.9903 2862.5064 0.0000 -197309.2003 20407.7400 116.4511 0.0000 0.0000 -173085.0766 0.0000 -173085.0766 -173085.0766 0.0000 15590.4687 -5203.9110 534946.2959 15590.4687 -5203.9110
ENERGY: 660 163.9650 656.9652 2861.4916 0.0000 -197412.8196 20413.5331 117.1698 0.0000 0.0000 -173199.6949 0.0000 -173199.6949 -173199.6949 0.0000 15617.4929 -5203.2464 534946.2959 15617.4929 -5203.2464
ENERGY: 680 160.3572 651.7565 2858.0493 0.0000 -197709.3731 20537.5285 120.9820 0.0000 0.0000 -173380.6996 0.0000 -173380.6996 -173380.6996 0.0000 15661.2965 -5181.9056 534946.2959 15661.2965 -5181.9056
ENERGY: 700 182.0326 654.2441 2856.5720 0.0000 -198492.6118 20835.6379 131.4834 0.0000 0.0000 -173832.6418 0.0000 -173832.6418 -173832.6418 0.0000 15803.2769 -5142.6597 534946.2959 15803.2769 -5142.6597
TCL: Setting parameter constraintScaling to 0.078125
TCL: Minimizing for 100 steps
ETITLE: TS BOND ANGLE DIHED IMPRP ELECT VDW BOUNDARY MISC KINETIC TOTAL TEMP POTENTIAL TOTAL3 TEMPAVG PRESSURE GPRESSURE VOLUME PRESSAVG GPRESSAVG
ENERGY: 700 182.0326 654.2441 2856.5720 0.0000 -198492.6118 20835.6379 65.7417 0.0000 0.0000 -173898.3835 0.0000 -173898.3835 -173898.3835 0.0000 15870.9486 -27050.8854 534946.2959 15870.9486 -27050.8854
ENERGY: 720 169.5663 652.4938 2851.2226 0.0000 -198687.4638 20882.8399 67.6025 0.0000 0.0000 -174063.7386 0.0000 -174063.7386 -174063.7386 0.0000 15859.0641 -5093.0309 534946.2959 15859.0641 -5093.0309
ENERGY: 740 165.3180 668.4712 2852.5760 0.0000 -198956.1970 20983.6879 70.6510 0.0000 0.0000 -174215.4929 0.0000 -174215.4929 -174215.4929 0.0000 15947.2124 -5052.7399 534946.2959 15947.2124 -5052.7399
ENERGY: 760 193.1172 666.3143 2845.8051 0.0000 -199585.3441 21220.4232 77.1754 0.0000 0.0000 -174582.5090 0.0000 -174582.5090 -174582.5090 0.0000 15998.0349 -5057.2042 534946.2959 15998.0349 -5057.2042
ENERGY: 780 162.5867 658.8814 2841.8637 0.0000 -200069.3621 21400.5644 81.8615 0.0000 0.0000 -174923.6043 0.0000 -174923.6043 -174923.6043 0.0000 16104.5440 -5019.4477 534946.2959 16104.5440 -5019.4477
ENERGY: 800 172.9923 666.7216 2839.5205 0.0000 -200589.6683 21624.1755 83.6394 0.0000 0.0000 -175202.6190 0.0000 -175202.6190 -175202.6190 0.0000 16288.6868 -4915.4350 534946.2959 16288.6868 -4915.4350
TCL: Setting parameter constraintScaling to 0.0390625
TCL: Minimizing for 100 steps
ETITLE: TS BOND ANGLE DIHED IMPRP ELECT VDW BOUNDARY MISC KINETIC TOTAL TEMP POTENTIAL TOTAL3 TEMPAVG PRESSURE GPRESSURE VOLUME PRESSAVG GPRESSAVG
ENERGY: 800 172.9923 666.7216 2839.5205 0.0000 -200589.6683 21624.1755 41.8197 0.0000 0.0000 -175244.4387 0.0000 -175244.4387 -175244.4387 0.0000 16328.1150 -27099.0492 534946.2959 16328.1150 -27099.0492
ENERGY: 820 161.0493 648.7350 2836.5430 0.0000 -200780.5655 21660.7240 43.3219 0.0000 0.0000 -175430.1923 0.0000 -175430.1923 -175430.1923 0.0000 16288.7834 -4918.7301 534946.2959 16288.7834 -4918.7301
ENERGY: 840 184.4904 651.6334 2834.0615 0.0000 -201070.1260 21777.5767 45.1931 0.0000 0.0000 -175577.1709 0.0000 -175577.1709 -175577.1709 0.0000 16303.9539 -4921.7375 534946.2959 16303.9539 -4921.7375
ENERGY: 860 161.7674 656.6563 2829.5795 0.0000 -201546.6888 21961.0839 47.8637 0.0000 0.0000 -175889.7381 0.0000 -175889.7381 -175889.7381 0.0000 16426.5577 -4870.0114 534946.2959 16426.5577 -4870.0114
ENERGY: 880 167.2643 668.3023 2831.4170 0.0000 -201784.0416 22051.4209 48.4002 0.0000 0.0000 -176017.2370 0.0000 -176017.2370 -176017.2370 0.0000 16464.9690 -4868.3417 534946.2959 16464.9690 -4868.3417
ENERGY: 900 176.5911 659.7843 2831.0970 0.0000 -202202.4586 22233.7038 49.6479 0.0000 0.0000 -176251.6345 0.0000 -176251.6345 -176251.6345 0.0000 16571.0698 -4805.2108 534946.2959 16571.0698 -4805.2108
TCL: Setting parameter constraintScaling to 0.01953125
TCL: Minimizing for 100 steps
ETITLE: TS BOND ANGLE DIHED IMPRP ELECT VDW BOUNDARY MISC KINETIC TOTAL TEMP POTENTIAL TOTAL3 TEMPAVG PRESSURE GPRESSURE VOLUME PRESSAVG GPRESSAVG
ENERGY: 900 176.5911 659.7843 2831.0970 0.0000 -202202.4586 22233.7038 24.8240 0.0000 0.0000 -176276.4585 0.0000 -176276.4585 -176276.4585 0.0000 16593.0662 -27228.4290 534946.2959 16593.0662 -27228.4290
ENERGY: 920 342.1576 754.0822 2832.5583 0.0000 -202485.7670 22336.4431 26.0876 0.0000 0.0000 -176194.4382 0.0000 -176194.4382 -176194.4382 0.0000 16586.1398 -4823.6759 534946.2959 16586.1398 -4823.6759
ENERGY: 940 178.3157 665.8066 2824.7637 0.0000 -202829.4672 22470.5962 27.2447 0.0000 0.0000 -176662.7403 0.0000 -176662.7403 -176662.7403 0.0000 16667.0138 -4773.9090 534946.2959 16667.0138 -4773.9090
ENERGY: 960 175.3453 656.1117 2821.6991 0.0000 -203063.5495 22570.0584 27.3964 0.0000 0.0000 -176812.9386 0.0000 -176812.9386 -176812.9386 0.0000 16759.2589 -4715.3965 534946.2959 16759.2589 -4715.3965
ENERGY: 980 299.7493 706.5841 2839.1361 0.0000 -203702.2644 22854.2095 28.9093 0.0000 0.0000 -176973.6762 0.0000 -176973.6762 -176973.6762 0.0000 16864.5283 -4690.8150 534946.2959 16864.5283 -4690.8150
ENERGY: 1000 167.9858 661.0990 2817.7818 0.0000 -203872.1409 22907.5611 29.7786 0.0000 0.0000 -177287.9347 0.0000 -177287.9347 -177287.9347 0.0000 16913.6743 -4656.3442 534946.2959 16913.6743 -4656.3442
TCL: Setting parameter constraintScaling to 0
TCL: Minimizing for 5000 steps
ETITLE: TS BOND ANGLE DIHED IMPRP ELECT VDW BOUNDARY MISC KINETIC TOTAL TEMP POTENTIAL TOTAL3 TEMPAVG PRESSURE GPRESSURE VOLUME PRESSAVG GPRESSAVG
ENERGY: 1000 167.9858 661.0990 2817.7818 0.0000 -203872.1409 22907.5611 0.0000 0.0000 0.0000 -177317.7132 0.0000 -177317.7132 -177317.7132 0.0000 16938.3311 -27273.2779 534946.2959 16938.3311 -27273.2779
ENERGY: 2000 171.2110 661.0513 2801.8495 0.0000 -214611.9719 27668.6315 0.0000 0.0000 0.0000 -183309.2286 0.0000 -183309.2286 -183309.2286 0.0000 19445.8492 -3345.7641 534946.2959 19445.8492 -3345.7641
ENERGY: 3000 168.9184 669.4630 2794.4202 0.0000 -217488.3265 28874.4553 0.0000 0.0000 0.0000 -184981.0695 0.0000 -184981.0695 -184981.0695 0.0000 20096.9577 -2989.7203 534946.2959 20096.9577 -2989.7203
ENERGY: 4000 168.1353 668.2520 2789.6255 0.0000 -218685.8902 29352.8914 0.0000 0.0000 0.0000 -185706.9860 0.0000 -185706.9860 -185706.9860 0.0000 20345.1803 -2871.8414 534946.2959 20345.1803 -2871.8414
ENERGY: 5000 167.2066 666.5417 2782.9674 0.0000 -219362.1340 29641.2946 0.0000 0.0000 0.0000 -186104.1236 0.0000 -186104.1236 -186104.1236 0.0000 20494.4840 -2798.3846 534946.2959 20494.4840 -2798.3846
ENERGY: 6000 167.1101 664.9052 2780.7331 0.0000 -219821.1670 29834.1552 0.0000 0.0000 0.0000 -186374.2633 0.0000 -186374.2633 -186374.2633 0.0000 20600.2008 -2736.0070 534946.2959 20600.2008 -2736.0070
