Info: SIMULATION PARAMETERS:
Info: TIMESTEP               2
Info: NUMBER OF STEPS        0
Info: STEPS PER CYCLE        10
Info: PERIODIC CELL BASIS 1  72.449 0 0
Info: PERIODIC CELL BASIS 2  0 93.247 0
Info: PERIODIC CELL BASIS 3  0 0 79.185
Info: PERIODIC CELL CENTER   -0.248 -0.156 -0.047
Info: WRAPPING WATERS AROUND PERIODIC BOUNDARIES ON OUTPUT.
Info: WRAPPING ALL CLUSTERS AROUND PERIODIC BOUNDARIES ON OUTPUT.
Info: FIRST LDB TIMESTEP     50
Info: LAST LDB TIMESTEP     -1
Info: HOM BACKGROUND SCALING 1
Info: PME BACKGROUND SCALING 1
Info: MIN ATOMS PER PATCH    40
Info: INITIAL TEMPERATURE    0
Info: CENTER OF MASS MOVING INITIALLY? NO
Info: DIELECTRIC             1
Info: EXCLUDE                SCALED ONE-FOUR
Info: 1-4 ELECTROSTATICS SCALED BY 0.833333
Info: MODIFIED 1-4 VDW PARAMETERS WILL BE USED
Info: NO DCD TRAJECTORY OUTPUT
Info: NO EXTENDED SYSTEM TRAJECTORY OUTPUT
Info: NO VELOCITY DCD OUTPUT
Info: NO FORCE DCD OUTPUT
Info: OUTPUT FILENAME        ../replicas/rep42/equilibration/eq0
Info: NO RESTART FILE
Info: SWITCHING ACTIVE
Info: SWITCHING ON           10
Info: SWITCHING OFF          12
Info: PAIRLIST DISTANCE      13.5
Info: PAIRLIST SHRINK RATE   0.01
Info: PAIRLIST GROW RATE     0.01
Info: PAIRLIST TRIGGER       0.3
Info: PAIRLISTS PER CYCLE    2
Info: PAIRLISTS ENABLED
Info: MARGIN                 0
Info: HYDROGEN GROUP CUTOFF  2.5
Info: PATCH DIMENSION        16
Info: ENERGY OUTPUT STEPS    500
Info: CROSSTERM ENERGY INCLUDED IN DIHEDRAL
Info: TIMING OUTPUT STEPS    5000
Info: PRESSURE OUTPUT STEPS  500
Info: HARMONIC CONSTRAINTS ACTIVE
Info: HARMONIC CONS EXP      2
Info: HARMONIC CONS SCALING  10
Info: CONJUGATE GRADIENT MINIMIZATION ACTIVE
Info: LINE MINIMIZATION GOAL = 0.001
Info: BABY STEP SIZE = 0.01
Info: TINY STEP SIZE = 1e-06
Info: PARTICLE MESH EWALD (PME) ACTIVE
Info: PME TOLERANCE               1e-06
Info: PME EWALD COEFFICIENT       0.257952
Info: PME INTERPOLATION ORDER     4
Info: PME GRID DIMENSIONS         80 96 80
Info: PME MAXIMUM GRID SPACING    1
Info: FULL ELECTROSTATIC EVALUATION FREQUENCY      2
Info: USING VERLET I (r-RESPA) MTS SCHEME.
Info: C1 SPLITTING OF LONG RANGE ELECTROSTATICS
Info: PLACING ATOMS IN PATCHES BY HYDROGEN GROUPS
Info: RIGID BONDS TO HYDROGEN : ALL
Info:         ERROR TOLERANCE : 1e-05
Info:          MAX ITERATIONS : 100
Info: RIGID WATER USING SETTLE ALGORITHM
Info: RANDOM NUMBER SEED     1503695094
Info: USE HYDROGEN BONDS?    NO
Info: Using AMBER format force field!
Info: AMBER PARM FILE        ../build/complex.top
Info: COORDINATE PDB         ../build/complex.pdb
Info: Exclusions in PARM file will be ignored!
Info: SCNB (VDW SCALING)     2
Info: USING ARITHMETIC MEAN TO COMBINE L-J SIGMA PARAMETERS
Info: SUMMARY OF PARAMETERS:
Info: 71 BONDS
Info: 145 ANGLES
Info:   145 HARMONIC
Info:   0 COSINE-BASED
Info: 76 DIHEDRAL
Info: 0 IMPROPER
Info: 0 CROSSTERM
Info: 0 VDW
Info: 190 VDW_PAIRS
Info: 0 NBTHOLE_PAIRS
Info: STRUCTURE SUMMARY:
Info: 49394 ATOMS
Info: 49448 BONDS
Info: 8698 ANGLES
Info: 18780 DIHEDRALS
Info: 0 IMPROPERS
Info: 0 CROSSTERMS
Info: 0 EXCLUSIONS
Info: 2336 CONSTRAINTS
Info: 47058 RIGID BONDS
Info: 101124 DEGREES OF FREEDOM
Info: 17225 HYDROGEN GROUPS
Info: 4 ATOMS IN LARGEST HYDROGEN GROUP
Info: 17225 MIGRATION GROUPS
Info: 4 ATOMS IN LARGEST MIGRATION GROUP
Info: TOTAL MASS = 301478 amu
Info: TOTAL CHARGE = 1.00115e-05 e
Info: MASS DENSITY = 0.935846 g/cm^3
Info: ATOM DENSITY = 0.0923345 atoms/A^3
Info: ADDED 70656 IMPLICIT EXCLUSIONS
Info: NONBONDED TABLE R-SQUARED SPACING: 0.0625
Info: NONBONDED TABLE SIZE: 769 POINTS
Info: REMOVING COM VELOCITY 0 0 0
TCL: Minimizing for 100 steps
ETITLE: TS BOND ANGLE DIHED IMPRP ELECT VDW BOUNDARY MISC KINETIC TOTAL TEMP POTENTIAL TOTAL3 TEMPAVG PRESSURE GPRESSURE VOLUME PRESSAVG GPRESSAVG
ENERGY: 0 155.4176 1012.2698 2855.7272 0.0000 -154496.7912 207729.2052 0.0468 0.0000 0.0000 57255.8754 0.0000 57255.8754 57255.8754 0.0000 116350.2532 86546.1670 534946.2959 116350.2532 86546.1670
ENERGY: 20 304.7552 935.7912 2893.4663 0.0000 -158672.9406 17936.6593 143.9454 0.0000 0.0000 -136458.3231 0.0000 -136458.3231 -136458.3231 0.0000 16523.9386 -239.4559 534946.2959 16523.9386 -239.4559
ENERGY: 40 198.7438 799.5726 2896.9273 0.0000 -162811.4531 16417.9537 221.3030 0.0000 0.0000 -142276.9527 0.0000 -142276.9527 -142276.9527 0.0000 15011.2703 -2135.4698 534946.2959 15011.2703 -2135.4698
ENERGY: 60 130.5284 715.3440 2898.2166 0.0000 -167496.1553 15446.7542 315.2796 0.0000 0.0000 -147990.0326 0.0000 -147990.0326 -147990.0326 0.0000 13793.8840 -3799.3982 534946.2959 13793.8840 -3799.3982
ENERGY: 80 431.2730 765.6308 2904.3785 0.0000 -169937.5231 15121.1531 372.0121 0.0000 0.0000 -150343.0756 0.0000 -150343.0756 -150343.0756 0.0000 13270.3322 -4577.2428 534946.2959 13270.3322 -4577.2428
ENERGY: 100 119.3881 710.0604 2905.2590 0.0000 -171259.7187 14991.7862 387.3614 0.0000 0.0000 -152145.8636 0.0000 -152145.8636 -152145.8636 0.0000 13056.2643 -4908.1744 534946.2959 13056.2643 -4908.1744
TCL: Setting parameter constraintScaling to 5.0
TCL: Minimizing for 100 steps
ETITLE: TS BOND ANGLE DIHED IMPRP ELECT VDW BOUNDARY MISC KINETIC TOTAL TEMP POTENTIAL TOTAL3 TEMPAVG PRESSURE GPRESSURE VOLUME PRESSAVG GPRESSAVG
ENERGY: 100 119.3881 710.0604 2905.2590 0.0000 -171259.7187 14991.7862 193.6807 0.0000 0.0000 -152339.5443 0.0000 -152339.5443 -152339.5443 0.0000 13672.7705 -23021.8208 534946.2959 13672.7705 -23021.8208
ENERGY: 120 108.8863 687.5854 2912.9268 0.0000 -172865.8760 14798.2709 281.1916 0.0000 0.0000 -154077.0149 0.0000 -154077.0149 -154077.0149 0.0000 13218.2555 -4906.0150 534946.2959 13218.2555 -4906.0150
ENERGY: 140 309.4709 708.8750 2913.8026 0.0000 -174236.5833 14731.4861 326.6369 0.0000 0.0000 -155246.3118 0.0000 -155246.3118 -155246.3118 0.0000 12971.5349 -5303.2243 534946.2959 12971.5349 -5303.2243
ENERGY: 160 265.0501 683.0601 2923.1630 0.0000 -176274.1915 14757.2686 382.8466 0.0000 0.0000 -157262.8031 0.0000 -157262.8031 -157262.8031 0.0000 12741.1037 -5742.7412 534946.2959 12741.1037 -5742.7412
ENERGY: 180 269.0170 744.0932 2928.5659 0.0000 -178994.4896 15023.3620 473.2546 0.0000 0.0000 -159556.1969 0.0000 -159556.1969 -159556.1969 0.0000 12521.6534 -6223.7252 534946.2959 12521.6534 -6223.7252
ENERGY: 200 238.7785 694.1067 2941.3549 0.0000 -181555.6381 15586.9046 546.2549 0.0000 0.0000 -161548.2385 0.0000 -161548.2385 -161548.2385 0.0000 12582.6343 -6424.5309 534946.2959 12582.6343 -6424.5309
TCL: Setting parameter constraintScaling to 2.5
TCL: Minimizing for 100 steps
ETITLE: TS BOND ANGLE DIHED IMPRP ELECT VDW BOUNDARY MISC KINETIC TOTAL TEMP POTENTIAL TOTAL3 TEMPAVG PRESSURE GPRESSURE VOLUME PRESSAVG GPRESSAVG
ENERGY: 200 238.7785 694.1067 2941.3549 0.0000 -181555.6381 15586.9046 273.1275 0.0000 0.0000 -161821.3659 0.0000 -161821.3659 -161821.3659 0.0000 13229.5270 -25655.2840 534946.2959 13229.5270 -25655.2840
ENERGY: 220 246.7874 677.9376 2933.0091 0.0000 -182076.9839 15471.5632 337.8031 0.0000 0.0000 -162409.8835 0.0000 -162409.8835 -162409.8835 0.0000 12970.9703 -6090.9237 534946.2959 12970.9703 -6090.9237
ENERGY: 240 140.4328 666.5867 2928.6087 0.0000 -182465.0912 15494.3111 343.7218 0.0000 0.0000 -162891.4301 0.0000 -162891.4301 -162891.4301 0.0000 13034.1970 -6108.3953 534946.2959 13034.1970 -6108.3953
ENERGY: 260 232.4504 702.1409 2922.5375 0.0000 -183745.9086 15756.9608 378.9707 0.0000 0.0000 -163752.8484 0.0000 -163752.8484 -163752.8484 0.0000 13014.1885 -6238.0590 534946.2959 13014.1885 -6238.0590
ENERGY: 280 203.5085 703.7909 2917.7667 0.0000 -185464.8828 16244.5449 457.1352 0.0000 0.0000 -164938.1366 0.0000 -164938.1366 -164938.1366 0.0000 13144.6095 -6343.0697 534946.2959 13144.6095 -6343.0697
ENERGY: 300 196.0955 659.2561 2920.8020 0.0000 -186577.0054 16640.8492 515.2580 0.0000 0.0000 -165644.7446 0.0000 -165644.7446 -165644.7446 0.0000 13239.2323 -6356.0998 534946.2959 13239.2323 -6356.0998
TCL: Setting parameter constraintScaling to 1.25
TCL: Minimizing for 100 steps
ETITLE: TS BOND ANGLE DIHED IMPRP ELECT VDW BOUNDARY MISC KINETIC TOTAL TEMP POTENTIAL TOTAL3 TEMPAVG PRESSURE GPRESSURE VOLUME PRESSAVG GPRESSAVG
ENERGY: 300 196.0955 659.2561 2920.8020 0.0000 -186577.0054 16640.8492 257.6290 0.0000 0.0000 -165902.3736 0.0000 -165902.3736 -165902.3736 0.0000 13702.0996 -26422.3894 534946.2959 13702.0996 -26422.3894
ENERGY: 320 155.1169 660.3624 2909.1664 0.0000 -187278.0356 16813.5140 287.7469 0.0000 0.0000 -166452.1289 0.0000 -166452.1289 -166452.1289 0.0000 13709.8685 -5960.4897 534946.2959 13709.8685 -5960.4897
ENERGY: 340 160.2924 653.7602 2912.7949 0.0000 -188018.4619 17046.1046 318.3199 0.0000 0.0000 -166927.1900 0.0000 -166927.1900 -166927.1900 0.0000 13764.0381 -5994.9338 534946.2959 13764.0381 -5994.9338
ENERGY: 360 142.2768 656.8180 2914.4753 0.0000 -188884.3715 17361.7650 348.6825 0.0000 0.0000 -167460.3538 0.0000 -167460.3538 -167460.3538 0.0000 13845.1705 -5990.8082 534946.2959 13845.1705 -5990.8082
ENERGY: 380 153.6653 643.5140 2898.1451 0.0000 -189231.5702 17459.3069 347.7878 0.0000 0.0000 -167729.1511 0.0000 -167729.1511 -167729.1511 0.0000 13919.1733 -5970.8495 534946.2959 13919.1733 -5970.8495
ENERGY: 400 263.1343 702.9227 2900.8281 0.0000 -190965.8865 18058.6453 388.9964 0.0000 0.0000 -168651.3598 0.0000 -168651.3598 -168651.3598 0.0000 14175.1868 -5937.2278 534946.2959 14175.1868 -5937.2278
TCL: Setting parameter constraintScaling to 0.625
TCL: Minimizing for 100 steps
ETITLE: TS BOND ANGLE DIHED IMPRP ELECT VDW BOUNDARY MISC KINETIC TOTAL TEMP POTENTIAL TOTAL3 TEMPAVG PRESSURE GPRESSURE VOLUME PRESSAVG GPRESSAVG
ENERGY: 400 263.1343 702.9227 2900.8281 0.0000 -190965.8865 18058.6453 194.4982 0.0000 0.0000 -168845.8579 0.0000 -168845.8579 -168845.8579 0.0000 14471.8970 -26691.0599 534946.2959 14471.8970 -26691.0599
ENERGY: 420 145.1609 632.8514 2894.0893 0.0000 -191163.7215 18124.3107 200.4006 0.0000 0.0000 -169166.9085 0.0000 -169166.9085 -169166.9085 0.0000 14446.1712 -5662.6867 534946.2959 14446.1712 -5662.6867
ENERGY: 440 155.9998 689.9178 2892.4502 0.0000 -191850.8125 18400.9852 230.4159 0.0000 0.0000 -169481.0435 0.0000 -169481.0435 -169481.0435 0.0000 14563.3809 -5634.7286 534946.2959 14563.3809 -5634.7286
ENERGY: 460 208.1448 701.3299 2895.7010 0.0000 -192860.7708 18834.7179 284.5770 0.0000 0.0000 -169936.3002 0.0000 -169936.3002 -169936.3002 0.0000 14596.3071 -5676.5487 534946.2959 14596.3071 -5676.5487
ENERGY: 480 165.2885 667.6322 2885.7653 0.0000 -193034.2908 18815.5365 278.7804 0.0000 0.0000 -170221.2879 0.0000 -170221.2879 -170221.2879 0.0000 14672.1343 -5643.3715 534946.2959 14672.1343 -5643.3715
ENERGY: 500 157.0396 663.7167 2886.7279 0.0000 -193501.1637 18952.0256 275.5694 0.0000 0.0000 -170566.0844 0.0000 -170566.0844 -170566.0844 0.0000 14763.2741 -5618.2034 534946.2959 14763.2741 -5618.2034
TCL: Setting parameter constraintScaling to 0.3125
TCL: Minimizing for 100 steps
ETITLE: TS BOND ANGLE DIHED IMPRP ELECT VDW BOUNDARY MISC KINETIC TOTAL TEMP POTENTIAL TOTAL3 TEMPAVG PRESSURE GPRESSURE VOLUME PRESSAVG GPRESSAVG
ENERGY: 500 157.0396 663.7167 2886.7279 0.0000 -193501.1637 18952.0256 137.7847 0.0000 0.0000 -170703.8691 0.0000 -170703.8691 -170703.8691 0.0000 14948.1367 -26808.7877 534946.2959 14948.1367 -26808.7877
ENERGY: 520 148.4447 639.7408 2882.7919 0.0000 -193967.4709 19114.7425 151.8243 0.0000 0.0000 -171029.9267 0.0000 -171029.9267 -171029.9267 0.0000 14971.3188 -5458.3222 534946.2959 14971.3188 -5458.3222
ENERGY: 540 190.9361 669.8086 2876.5024 0.0000 -194507.9667 19356.0030 169.5394 0.0000 0.0000 -171245.1772 0.0000 -171245.1772 -171245.1772 0.0000 15037.5082 -5428.0480 534946.2959 15037.5082 -5428.0480
ENERGY: 560 155.4144 660.8561 2878.9290 0.0000 -194661.5418 19371.2507 171.2107 0.0000 0.0000 -171423.8808 0.0000 -171423.8808 -171423.8808 0.0000 15046.1273 -5451.1048 534946.2959 15046.1273 -5451.1048
ENERGY: 580 178.3875 697.5186 2881.6230 0.0000 -195433.0854 19670.8561 185.1852 0.0000 0.0000 -171819.5149 0.0000 -171819.5149 -171819.5149 0.0000 15196.0353 -5404.5789 534946.2959 15196.0353 -5404.5789
ENERGY: 600 158.0727 658.5400 2872.6871 0.0000 -197229.6550 20454.0139 224.6611 0.0000 0.0000 -172861.6802 0.0000 -172861.6802 -172861.6802 0.0000 15537.9500 -5251.2174 534946.2959 15537.9500 -5251.2174
TCL: Setting parameter constraintScaling to 0.15625
TCL: Minimizing for 100 steps
ETITLE: TS BOND ANGLE DIHED IMPRP ELECT VDW BOUNDARY MISC KINETIC TOTAL TEMP POTENTIAL TOTAL3 TEMPAVG PRESSURE GPRESSURE VOLUME PRESSAVG GPRESSAVG
ENERGY: 600 158.0727 658.5400 2872.6871 0.0000 -197229.6550 20454.0139 112.3306 0.0000 0.0000 -172974.0108 0.0000 -172974.0108 -172974.0108 0.0000 15662.2501 -26975.8824 534946.2959 15662.2501 -26975.8824
ENERGY: 620 154.0838 654.1442 2865.4551 0.0000 -197490.9460 20491.8608 118.4447 0.0000 0.0000 -173206.9575 0.0000 -173206.9575 -173206.9575 0.0000 15656.3053 -5170.2268 534946.2959 15656.3053 -5170.2268
ENERGY: 640 173.4967 661.6942 2855.2819 0.0000 -197929.9655 20676.4031 125.3002 0.0000 0.0000 -173437.7893 0.0000 -173437.7893 -173437.7893 0.0000 15738.0115 -5139.8396 534946.2959 15738.0115 -5139.8396
ENERGY: 660 167.1459 659.9751 2858.7023 0.0000 -198333.8475 20796.5380 131.8573 0.0000 0.0000 -173719.6290 0.0000 -173719.6290 -173719.6290 0.0000 15775.3518 -5147.6491 534946.2959 15775.3518 -5147.6491
ENERGY: 680 169.1921 657.0598 2852.4551 0.0000 -198742.6766 20929.9727 133.7700 0.0000 0.0000 -174000.2270 0.0000 -174000.2270 -174000.2270 0.0000 15867.9612 -5104.3604 534946.2959 15867.9612 -5104.3604
ENERGY: 700 158.9427 649.9997 2852.0899 0.0000 -199547.7452 21252.0754 143.3507 0.0000 0.0000 -174491.2866 0.0000 -174491.2866 -174491.2866 0.0000 16029.4481 -5043.3988 534946.2959 16029.4481 -5043.3988
TCL: Setting parameter constraintScaling to 0.078125
TCL: Minimizing for 100 steps
ETITLE: TS BOND ANGLE DIHED IMPRP ELECT VDW BOUNDARY MISC KINETIC TOTAL TEMP POTENTIAL TOTAL3 TEMPAVG PRESSURE GPRESSURE VOLUME PRESSAVG GPRESSAVG
ENERGY: 700 158.9427 649.9997 2852.0899 0.0000 -199547.7452 21252.0754 71.6754 0.0000 0.0000 -174562.9620 0.0000 -174562.9620 -174562.9620 0.0000 16101.9661 -27089.9352 534946.2959 16101.9661 -27089.9352
ENERGY: 720 225.9550 686.4474 2845.8263 0.0000 -199972.1993 21388.7104 77.0339 0.0000 0.0000 -174748.2264 0.0000 -174748.2264 -174748.2264 0.0000 16144.0200 -4990.3666 534946.2959 16144.0200 -4990.3666
ENERGY: 740 189.3356 658.1684 2838.9640 0.0000 -200080.1937 21433.1846 78.0069 0.0000 0.0000 -174882.5341 0.0000 -174882.5341 -174882.5341 0.0000 16124.2465 -4996.7240 534946.2959 16124.2465 -4996.7240
ENERGY: 760 159.0853 653.7786 2838.2255 0.0000 -200404.4324 21557.1945 81.5916 0.0000 0.0000 -175114.5570 0.0000 -175114.5570 -175114.5570 0.0000 16202.3138 -4963.1456 534946.2959 16202.3138 -4963.1456
ENERGY: 780 181.9730 690.1033 2843.8835 0.0000 -200690.6272 21635.4126 84.3933 0.0000 0.0000 -175254.8616 0.0000 -175254.8616 -175254.8616 0.0000 16226.0146 -4972.8448 534946.2959 16226.0146 -4972.8448
ENERGY: 800 180.4008 671.5891 2834.5409 0.0000 -201542.5680 21979.9044 91.0029 0.0000 0.0000 -175785.1299 0.0000 -175785.1299 -175785.1299 0.0000 16407.6052 -4886.7396 534946.2959 16407.6052 -4886.7396
TCL: Setting parameter constraintScaling to 0.0390625
TCL: Minimizing for 100 steps
ETITLE: TS BOND ANGLE DIHED IMPRP ELECT VDW BOUNDARY MISC KINETIC TOTAL TEMP POTENTIAL TOTAL3 TEMPAVG PRESSURE GPRESSURE VOLUME PRESSAVG GPRESSAVG
ENERGY: 800 180.4008 671.5891 2834.5409 0.0000 -201542.5680 21979.9044 45.5015 0.0000 0.0000 -175830.6313 0.0000 -175830.6313 -175830.6313 0.0000 16449.2339 -27218.2342 534946.2959 16449.2339 -27218.2342
ENERGY: 820 167.9877 654.4172 2834.3004 0.0000 -201718.0129 22038.2066 46.4020 0.0000 0.0000 -175976.6989 0.0000 -175976.6989 -175976.6989 0.0000 16483.7064 -4841.1080 534946.2959 16483.7064 -4841.1080
ENERGY: 840 168.7611 669.7074 2826.2649 0.0000 -202174.9288 22267.8664 49.5244 0.0000 0.0000 -176192.8046 0.0000 -176192.8046 -176192.8046 0.0000 16579.1538 -4791.0497 534946.2959 16579.1538 -4791.0497
ENERGY: 860 168.9064 662.5502 2830.7728 0.0000 -202281.7493 22259.3919 49.8557 0.0000 0.0000 -176310.2722 0.0000 -176310.2722 -176310.2722 0.0000 16572.1522 -4813.5859 534946.2959 16572.1522 -4813.5859
ENERGY: 880 163.9681 660.4023 2828.4211 0.0000 -202498.8912 22338.4640 50.6098 0.0000 0.0000 -176457.0259 0.0000 -176457.0259 -176457.0259 0.0000 16633.1676 -4782.2205 534946.2959 16633.1676 -4782.2205
ENERGY: 900 178.4309 673.0951 2829.6494 0.0000 -203010.4860 22569.4619 52.8164 0.0000 0.0000 -176707.0324 0.0000 -176707.0324 -176707.0324 0.0000 16766.1726 -4709.2825 534946.2959 16766.1726 -4709.2825
TCL: Setting parameter constraintScaling to 0.01953125
TCL: Minimizing for 100 steps
ETITLE: TS BOND ANGLE DIHED IMPRP ELECT VDW BOUNDARY MISC KINETIC TOTAL TEMP POTENTIAL TOTAL3 TEMPAVG PRESSURE GPRESSURE VOLUME PRESSAVG GPRESSAVG
ENERGY: 900 178.4309 673.0951 2829.6494 0.0000 -203010.4860 22569.4619 26.4082 0.0000 0.0000 -176733.4406 0.0000 -176733.4406 -176733.4406 0.0000 16789.0292 -27227.6473 534946.2959 16789.0292 -27227.6473
ENERGY: 920 170.3996 662.4431 2824.1683 0.0000 -203273.4151 22654.0039 27.3794 0.0000 0.0000 -176935.0210 0.0000 -176935.0210 -176935.0210 0.0000 16802.5245 -4701.4084 534946.2959 16802.5245 -4701.4084
ENERGY: 940 233.3578 711.2148 2820.7919 0.0000 -203720.9388 22912.1701 29.0468 0.0000 0.0000 -177014.3574 0.0000 -177014.3574 -177014.3574 0.0000 16914.0396 -4639.6802 534946.2959 16914.0396 -4639.6802
ENERGY: 960 208.9301 672.6172 2819.5746 0.0000 -203874.4223 22915.1261 29.0686 0.0000 0.0000 -177229.1058 0.0000 -177229.1058 -177229.1058 0.0000 16939.7137 -4640.9875 534946.2959 16939.7137 -4640.9875
ENERGY: 980 175.1702 669.6168 2820.5330 0.0000 -204098.2156 23018.6497 29.5544 0.0000 0.0000 -177384.6915 0.0000 -177384.6915 -177384.6915 0.0000 17006.4877 -4595.4775 534946.2959 17006.4877 -4595.4775
ENERGY: 1000 161.4535 654.2781 2817.7758 0.0000 -204323.9341 23108.9805 30.3061 0.0000 0.0000 -177551.1401 0.0000 -177551.1401 -177551.1401 0.0000 17052.5720 -4580.7241 534946.2959 17052.5720 -4580.7241
TCL: Setting parameter constraintScaling to 0
TCL: Minimizing for 5000 steps
ETITLE: TS BOND ANGLE DIHED IMPRP ELECT VDW BOUNDARY MISC KINETIC TOTAL TEMP POTENTIAL TOTAL3 TEMPAVG PRESSURE GPRESSURE VOLUME PRESSAVG GPRESSAVG
ENERGY: 1000 161.4535 654.2781 2817.7758 0.0000 -204323.9341 23108.9805 0.0000 0.0000 0.0000 -177581.4462 0.0000 -177581.4462 -177581.4462 0.0000 17077.5581 -27251.9741 534946.2959 17077.5581 -27251.9741
ENERGY: 2000 182.1304 665.4353 2802.1912 0.0000 -214669.9605 27684.7432 0.0000 0.0000 0.0000 -183335.4605 0.0000 -183335.4605 -183335.4605 0.0000 19443.1154 -3343.1449 534946.2959 19443.1154 -3343.1449
ENERGY: 3000 281.8093 714.9772 2796.1485 0.0000 -217287.1853 28817.9287 0.0000 0.0000 0.0000 -184676.3216 0.0000 -184676.3216 -184676.3216 0.0000 20098.9806 -2967.6252 534946.2959 20098.9806 -2967.6252
ENERGY: 4000 172.3570 669.9151 2784.2231 0.0000 -218620.8656 29327.2436 0.0000 0.0000 0.0000 -185667.1269 0.0000 -185667.1269 -185667.1269 0.0000 20338.8323 -2858.3699 534946.2959 20338.8323 -2858.3699
ENERGY: 5000 166.5404 668.1970 2776.7624 0.0000 -219313.9459 29601.1484 0.0000 0.0000 0.0000 -186101.2978 0.0000 -186101.2978 -186101.2978 0.0000 20472.0612 -2799.7640 534946.2959 20472.0612 -2799.7640
ENERGY: 6000 166.9440 668.5035 2775.1683 0.0000 -219776.6581 29777.6758 0.0000 0.0000 0.0000 -186388.3665 0.0000 -186388.3665 -186388.3665 0.0000 20563.4736 -2747.5281 534946.2959 20563.4736 -2747.5281
