Info: SIMULATION PARAMETERS:
Info: TIMESTEP               2
Info: NUMBER OF STEPS        0
Info: STEPS PER CYCLE        10
Info: PERIODIC CELL BASIS 1  72.449 0 0
Info: PERIODIC CELL BASIS 2  0 93.247 0
Info: PERIODIC CELL BASIS 3  0 0 79.185
Info: PERIODIC CELL CENTER   -0.248 -0.156 -0.047
Info: WRAPPING WATERS AROUND PERIODIC BOUNDARIES ON OUTPUT.
Info: WRAPPING ALL CLUSTERS AROUND PERIODIC BOUNDARIES ON OUTPUT.
Info: FIRST LDB TIMESTEP     50
Info: LAST LDB TIMESTEP     -1
Info: HOM BACKGROUND SCALING 1
Info: PME BACKGROUND SCALING 1
Info: MIN ATOMS PER PATCH    40
Info: INITIAL TEMPERATURE    0
Info: CENTER OF MASS MOVING INITIALLY? NO
Info: DIELECTRIC             1
Info: EXCLUDE                SCALED ONE-FOUR
Info: 1-4 ELECTROSTATICS SCALED BY 0.833333
Info: MODIFIED 1-4 VDW PARAMETERS WILL BE USED
Info: NO DCD TRAJECTORY OUTPUT
Info: NO EXTENDED SYSTEM TRAJECTORY OUTPUT
Info: NO VELOCITY DCD OUTPUT
Info: NO FORCE DCD OUTPUT
Info: OUTPUT FILENAME        ../replicas/rep78/equilibration/eq0
Info: NO RESTART FILE
Info: SWITCHING ACTIVE
Info: SWITCHING ON           10
Info: SWITCHING OFF          12
Info: PAIRLIST DISTANCE      13.5
Info: PAIRLIST SHRINK RATE   0.01
Info: PAIRLIST GROW RATE     0.01
Info: PAIRLIST TRIGGER       0.3
Info: PAIRLISTS PER CYCLE    2
Info: PAIRLISTS ENABLED
Info: MARGIN                 0
Info: HYDROGEN GROUP CUTOFF  2.5
Info: PATCH DIMENSION        16
Info: ENERGY OUTPUT STEPS    500
Info: CROSSTERM ENERGY INCLUDED IN DIHEDRAL
Info: TIMING OUTPUT STEPS    5000
Info: PRESSURE OUTPUT STEPS  500
Info: HARMONIC CONSTRAINTS ACTIVE
Info: HARMONIC CONS EXP      2
Info: HARMONIC CONS SCALING  10
Info: CONJUGATE GRADIENT MINIMIZATION ACTIVE
Info: LINE MINIMIZATION GOAL = 0.001
Info: BABY STEP SIZE = 0.01
Info: TINY STEP SIZE = 1e-06
Info: PARTICLE MESH EWALD (PME) ACTIVE
Info: PME TOLERANCE               1e-06
Info: PME EWALD COEFFICIENT       0.257952
Info: PME INTERPOLATION ORDER     4
Info: PME GRID DIMENSIONS         80 96 80
Info: PME MAXIMUM GRID SPACING    1
Info: FULL ELECTROSTATIC EVALUATION FREQUENCY      2
Info: USING VERLET I (r-RESPA) MTS SCHEME.
Info: C1 SPLITTING OF LONG RANGE ELECTROSTATICS
Info: PLACING ATOMS IN PATCHES BY HYDROGEN GROUPS
Info: RIGID BONDS TO HYDROGEN : ALL
Info:         ERROR TOLERANCE : 1e-05
Info:          MAX ITERATIONS : 100
Info: RIGID WATER USING SETTLE ALGORITHM
Info: RANDOM NUMBER SEED     1503693787
Info: USE HYDROGEN BONDS?    NO
Info: Using AMBER format force field!
Info: AMBER PARM FILE        ../build/complex.top
Info: COORDINATE PDB         ../build/complex.pdb
Info: Exclusions in PARM file will be ignored!
Info: SCNB (VDW SCALING)     2
Info: USING ARITHMETIC MEAN TO COMBINE L-J SIGMA PARAMETERS
Info: SUMMARY OF PARAMETERS:
Info: 71 BONDS
Info: 145 ANGLES
Info: 76 DIHEDRAL
Info: 0 IMPROPER
Info: 0 CROSSTERM
Info: 0 VDW
Info: 190 VDW_PAIRS
Info: 0 NBTHOLE_PAIRS
Info: STRUCTURE SUMMARY:
Info: 49394 ATOMS
Info: 49448 BONDS
Info: 8698 ANGLES
Info: 18780 DIHEDRALS
Info: 0 IMPROPERS
Info: 0 CROSSTERMS
Info: 0 EXCLUSIONS
Info: 2336 CONSTRAINTS
Info: 47058 RIGID BONDS
Info: 101124 DEGREES OF FREEDOM
Info: 17225 HYDROGEN GROUPS
Info: 4 ATOMS IN LARGEST HYDROGEN GROUP
Info: 17225 MIGRATION GROUPS
Info: 4 ATOMS IN LARGEST MIGRATION GROUP
Info: TOTAL MASS = 301478 amu
Info: TOTAL CHARGE = 1.00115e-05 e
Info: MASS DENSITY = 0.935846 g/cm^3
Info: ATOM DENSITY = 0.0923345 atoms/A^3
Info: ADDED 70656 IMPLICIT EXCLUSIONS
Info: NONBONDED TABLE R-SQUARED SPACING: 0.0625
Info: NONBONDED TABLE SIZE: 769 POINTS
Info: REMOVING COM VELOCITY 0 0 0
TCL: Minimizing for 100 steps
ETITLE: TS BOND ANGLE DIHED IMPRP ELECT VDW BOUNDARY MISC KINETIC TOTAL TEMP POTENTIAL TOTAL3 TEMPAVG PRESSURE GPRESSURE VOLUME PRESSAVG GPRESSAVG
ENERGY: 0 155.4176 1012.2698 2855.7272 0.0000 -154496.7912 207729.2052 0.0468 0.0000 0.0000 57255.8754 0.0000 57255.8754 57255.8754 0.0000 116350.2532 86546.1670 534946.2959 116350.2532 86546.1670
ENERGY: 20 304.7579 935.7914 2893.4663 0.0000 -158672.9427 17936.6583 143.9456 0.0000 0.0000 -136458.3231 0.0000 -136458.3231 -136458.3231 0.0000 16523.9375 -239.4572 534946.2959 16523.9375 -239.4572
ENERGY: 40 198.7469 799.5732 2896.9273 0.0000 -162811.4507 16417.9543 221.3030 0.0000 0.0000 -142276.9460 0.0000 -142276.9460 -142276.9460 0.0000 15011.2711 -2135.4688 534946.2959 15011.2711 -2135.4688
ENERGY: 60 130.5281 715.3440 2898.2166 0.0000 -167496.1556 15446.7541 315.2796 0.0000 0.0000 -147990.0332 0.0000 -147990.0332 -147990.0332 0.0000 13793.8840 -3799.3982 534946.2959 13793.8840 -3799.3982
ENERGY: 80 431.2690 765.6298 2904.3789 0.0000 -169937.5323 15121.1520 372.0124 0.0000 0.0000 -150343.0902 0.0000 -150343.0902 -150343.0902 0.0000 13270.3302 -4577.2446 534946.2959 13270.3302 -4577.2446
ENERGY: 100 119.3836 710.0599 2905.2593 0.0000 -171259.7096 14991.7870 387.3614 0.0000 0.0000 -152145.8585 0.0000 -152145.8585 -152145.8585 0.0000 13056.2659 -4908.1711 534946.2959 13056.2659 -4908.1711
TCL: Setting parameter constraintScaling to 5.0
TCL: Minimizing for 100 steps
ETITLE: TS BOND ANGLE DIHED IMPRP ELECT VDW BOUNDARY MISC KINETIC TOTAL TEMP POTENTIAL TOTAL3 TEMPAVG PRESSURE GPRESSURE VOLUME PRESSAVG GPRESSAVG
ENERGY: 100 119.3836 710.0599 2905.2593 0.0000 -171259.7096 14991.7870 193.6807 0.0000 0.0000 -152339.5392 0.0000 -152339.5392 -152339.5392 0.0000 13672.7720 -23021.8178 534946.2959 13672.7720 -23021.8178
ENERGY: 120 108.8792 687.5829 2912.9265 0.0000 -172865.8978 14798.2700 281.1921 0.0000 0.0000 -154077.0470 0.0000 -154077.0470 -154077.0470 0.0000 13218.2527 -4906.0207 534946.2959 13218.2527 -4906.0207
ENERGY: 140 309.3667 708.8580 2913.8023 0.0000 -174236.7794 14731.4758 326.6423 0.0000 0.0000 -155246.6343 0.0000 -155246.6343 -155246.6343 0.0000 12971.5168 -5303.2668 534946.2959 12971.5168 -5303.2668
ENERGY: 160 265.5170 683.1997 2923.1901 0.0000 -176276.9140 14757.4307 382.9478 0.0000 0.0000 -157264.6288 0.0000 -157264.6288 -157264.6288 0.0000 12740.7587 -5742.1798 534946.2959 12740.7587 -5742.1798
ENERGY: 180 268.7099 744.1004 2928.5657 0.0000 -178996.5763 15023.7104 473.3630 0.0000 0.0000 -159558.1269 0.0000 -159558.1269 -159558.1269 0.0000 12521.5375 -6222.9922 534946.2959 12521.5375 -6222.9922
ENERGY: 200 239.0900 694.0704 2941.3746 0.0000 -181557.1725 15587.2614 546.2831 0.0000 0.0000 -161549.0930 0.0000 -161549.0930 -161549.0930 0.0000 12582.6597 -6430.5298 534946.2959 12582.6597 -6430.5298
TCL: Setting parameter constraintScaling to 2.5
TCL: Minimizing for 100 steps
ETITLE: TS BOND ANGLE DIHED IMPRP ELECT VDW BOUNDARY MISC KINETIC TOTAL TEMP POTENTIAL TOTAL3 TEMPAVG PRESSURE GPRESSURE VOLUME PRESSAVG GPRESSAVG
ENERGY: 200 239.0900 694.0704 2941.3746 0.0000 -181557.1725 15587.2614 273.1416 0.0000 0.0000 -161822.2346 0.0000 -161822.2346 -161822.2346 0.0000 13229.5897 -25661.4108 534946.2959 13229.5897 -25661.4108
ENERGY: 220 245.6549 677.0041 2932.9959 0.0000 -182074.9394 15472.5015 337.2979 0.0000 0.0000 -162409.4850 0.0000 -162409.4850 -162409.4850 0.0000 12973.0330 -6094.5421 534946.2959 12973.0330 -6094.5421
ENERGY: 240 154.2707 693.7647 2928.7141 0.0000 -182681.8740 15529.7412 347.0856 0.0000 0.0000 -163028.2978 0.0000 -163028.2978 -163028.2978 0.0000 13033.3499 -6137.8630 534946.2959 13033.3499 -6137.8630
ENERGY: 260 178.6587 683.3099 2920.1995 0.0000 -184291.6634 15886.2253 399.0755 0.0000 0.0000 -164224.1946 0.0000 -164224.1946 -164224.1946 0.0000 13053.7530 -6280.7868 534946.2959 13053.7530 -6280.7868
ENERGY: 280 169.2109 700.8284 2917.5845 0.0000 -185421.1778 16227.8811 454.9662 0.0000 0.0000 -164950.7066 0.0000 -164950.7066 -164950.7066 0.0000 13142.7080 -6344.9171 534946.2959 13142.7080 -6344.9171
ENERGY: 300 126.7224 639.5256 2916.2430 0.0000 -186092.4273 16444.6982 481.3840 0.0000 0.0000 -165483.8540 0.0000 -165483.8540 -165483.8540 0.0000 13207.1648 -6348.8501 534946.2959 13207.1648 -6348.8501
TCL: Setting parameter constraintScaling to 1.25
TCL: Minimizing for 100 steps
ETITLE: TS BOND ANGLE DIHED IMPRP ELECT VDW BOUNDARY MISC KINETIC TOTAL TEMP POTENTIAL TOTAL3 TEMPAVG PRESSURE GPRESSURE VOLUME PRESSAVG GPRESSAVG
ENERGY: 300 126.7224 639.5256 2916.2430 0.0000 -186092.4273 16444.6982 240.6920 0.0000 0.0000 -165724.5460 0.0000 -165724.5460 -165724.5460 0.0000 13655.5033 -26358.5894 534946.2959 13655.5033 -26358.5894
ENERGY: 320 148.3958 637.4914 2911.2504 0.0000 -186812.4938 16619.8838 284.2578 0.0000 0.0000 -166211.2146 0.0000 -166211.2146 -166211.2146 0.0000 13612.2270 -6008.0095 534946.2959 13612.2270 -6008.0095
ENERGY: 340 139.4343 625.2041 2909.3151 0.0000 -187242.3345 16770.2111 288.8891 0.0000 0.0000 -166509.2807 0.0000 -166509.2807 -166509.2807 0.0000 13697.5178 -5977.4048 534946.2959 13697.5178 -5977.4048
ENERGY: 360 180.1262 671.5875 2908.1362 0.0000 -188765.3945 17289.8771 344.9907 0.0000 0.0000 -167370.6768 0.0000 -167370.6768 -167370.6768 0.0000 13870.4363 -5999.5218 534946.2959 13870.4363 -5999.5218
ENERGY: 380 197.4952 647.4523 2901.0203 0.0000 -190430.0054 17944.6946 401.9523 0.0000 0.0000 -168337.3907 0.0000 -168337.3907 -168337.3907 0.0000 14030.0149 -5983.1904 534946.2959 14030.0149 -5983.1904
ENERGY: 400 134.5156 643.5446 2899.4860 0.0000 -190535.0096 17962.1041 400.4438 0.0000 0.0000 -168494.9154 0.0000 -168494.9154 -168494.9154 0.0000 14133.8291 -5931.3410 534946.2959 14133.8291 -5931.3410
TCL: Setting parameter constraintScaling to 0.625
TCL: Minimizing for 100 steps
ETITLE: TS BOND ANGLE DIHED IMPRP ELECT VDW BOUNDARY MISC KINETIC TOTAL TEMP POTENTIAL TOTAL3 TEMPAVG PRESSURE GPRESSURE VOLUME PRESSAVG GPRESSAVG
ENERGY: 400 134.5156 643.5446 2899.4860 0.0000 -190535.0096 17962.1041 200.2219 0.0000 0.0000 -168695.1373 0.0000 -168695.1373 -168695.1373 0.0000 14434.8050 -26614.8868 534946.2959 14434.8050 -26614.8868
ENERGY: 420 162.2235 637.7470 2897.6594 0.0000 -190913.3413 18045.9409 221.0109 0.0000 0.0000 -168948.7595 0.0000 -168948.7595 -168948.7595 0.0000 14296.7841 -5759.7559 534946.2959 14296.7841 -5759.7559
ENERGY: 440 162.3551 632.0616 2890.9782 0.0000 -191423.7254 18199.6087 235.0397 0.0000 0.0000 -169303.6821 0.0000 -169303.6821 -169303.6821 0.0000 14425.4514 -5722.8140 534946.2959 14425.4514 -5722.8140
ENERGY: 460 385.2052 689.1590 2891.9049 0.0000 -192465.3299 18563.1532 266.8713 0.0000 0.0000 -169669.0363 0.0000 -169669.0363 -169669.0363 0.0000 14528.6714 -5730.3623 534946.2959 14528.6714 -5730.3623
ENERGY: 480 333.0676 661.4387 2880.3340 0.0000 -193442.9746 18951.0768 289.9327 0.0000 0.0000 -170327.1249 0.0000 -170327.1249 -170327.1249 0.0000 14668.8676 -5676.4093 534946.2959 14668.8676 -5676.4093
ENERGY: 500 160.6852 638.6637 2879.0407 0.0000 -194202.8281 19253.5559 311.6221 0.0000 0.0000 -170959.2604 0.0000 -170959.2604 -170959.2604 0.0000 14801.1832 -5623.8682 534946.2959 14801.1832 -5623.8682
TCL: Setting parameter constraintScaling to 0.3125
TCL: Minimizing for 100 steps
ETITLE: TS BOND ANGLE DIHED IMPRP ELECT VDW BOUNDARY MISC KINETIC TOTAL TEMP POTENTIAL TOTAL3 TEMPAVG PRESSURE GPRESSURE VOLUME PRESSAVG GPRESSAVG
ENERGY: 500 160.6852 638.6637 2879.0407 0.0000 -194202.8281 19253.5559 155.8110 0.0000 0.0000 -171115.0715 0.0000 -171115.0715 -171115.0715 0.0000 14998.5746 -26920.3803 534946.2959 14998.5746 -26920.3803
ENERGY: 520 175.3013 672.9959 2878.3527 0.0000 -194493.1149 19344.1629 165.3175 0.0000 0.0000 -171256.9846 0.0000 -171256.9846 -171256.9846 0.0000 15111.1825 -5418.2743 534946.2959 15111.1825 -5418.2743
ENERGY: 540 173.9777 644.8934 2874.9274 0.0000 -194802.2562 19456.1230 172.8239 0.0000 0.0000 -171479.5108 0.0000 -171479.5108 -171479.5108 0.0000 15070.5904 -5443.4403 534946.2959 15070.5904 -5443.4403
ENERGY: 560 393.0884 698.6803 2874.7312 0.0000 -195974.1670 19888.1827 202.3008 0.0000 0.0000 -171917.1836 0.0000 -171917.1836 -171917.1836 0.0000 15240.1931 -5419.4001 534946.2959 15240.1931 -5419.4001
ENERGY: 580 156.7714 647.7893 2869.2283 0.0000 -195843.1889 19834.6963 196.5451 0.0000 0.0000 -172138.1585 0.0000 -172138.1585 -172138.1585 0.0000 15245.9142 -5387.6878 534946.2959 15245.9142 -5387.6878
ENERGY: 600 163.2893 645.6770 2863.9967 0.0000 -196483.2473 20076.8945 207.1516 0.0000 0.0000 -172526.2383 0.0000 -172526.2383 -172526.2383 0.0000 15367.1211 -5348.7607 534946.2959 15367.1211 -5348.7607
TCL: Setting parameter constraintScaling to 0.15625
TCL: Minimizing for 100 steps
ETITLE: TS BOND ANGLE DIHED IMPRP ELECT VDW BOUNDARY MISC KINETIC TOTAL TEMP POTENTIAL TOTAL3 TEMPAVG PRESSURE GPRESSURE VOLUME PRESSAVG GPRESSAVG
ENERGY: 600 163.2893 645.6770 2863.9967 0.0000 -196483.2473 20076.8945 103.5758 0.0000 0.0000 -172629.8141 0.0000 -172629.8141 -172629.8141 0.0000 15484.3426 -26966.9590 534946.2959 15484.3426 -26966.9590
ENERGY: 620 160.7809 650.6790 2870.1261 0.0000 -196776.0621 20173.2314 110.1658 0.0000 0.0000 -172811.0788 0.0000 -172811.0788 -172811.0788 0.0000 15475.8547 -5265.1852 534946.2959 15475.8547 -5265.1852
ENERGY: 640 185.3671 678.0078 2859.1356 0.0000 -197325.6729 20382.8771 117.1425 0.0000 0.0000 -173103.1428 0.0000 -173103.1428 -173103.1428 0.0000 15559.5908 -5233.1000 534946.2959 15559.5908 -5233.1000
ENERGY: 660 278.7048 672.2211 2860.3328 0.0000 -198299.6916 20745.4322 135.1493 0.0000 0.0000 -173607.8514 0.0000 -173607.8514 -173607.8514 0.0000 15689.8774 -5231.5047 534946.2959 15689.8774 -5231.5047
ENERGY: 680 155.8271 658.4509 2852.6134 0.0000 -198534.0876 20844.3531 135.8029 0.0000 0.0000 -173887.0403 0.0000 -173887.0403 -173887.0403 0.0000 15829.8530 -5135.9839 534946.2959 15829.8530 -5135.9839
ENERGY: 700 191.3372 696.9540 2852.4804 0.0000 -199015.9361 21034.9739 139.1705 0.0000 0.0000 -174101.0201 0.0000 -174101.0201 -174101.0201 0.0000 15856.2462 -5119.8289 534946.2959 15856.2462 -5119.8289
TCL: Setting parameter constraintScaling to 0.078125
TCL: Minimizing for 100 steps
ETITLE: TS BOND ANGLE DIHED IMPRP ELECT VDW BOUNDARY MISC KINETIC TOTAL TEMP POTENTIAL TOTAL3 TEMPAVG PRESSURE GPRESSURE VOLUME PRESSAVG GPRESSAVG
ENERGY: 700 191.3372 696.9540 2852.4804 0.0000 -199015.9361 21034.9739 69.5853 0.0000 0.0000 -174170.6054 0.0000 -174170.6054 -174170.6054 0.0000 15926.8182 -27131.2059 534946.2959 15926.8182 -27131.2059
ENERGY: 720 162.8325 650.0766 2852.6956 0.0000 -199168.6732 21068.4141 72.7482 0.0000 0.0000 -174361.9063 0.0000 -174361.9063 -174361.9063 0.0000 15937.9733 -5072.7145 534946.2959 15937.9733 -5072.7145
ENERGY: 740 264.7191 689.4332 2846.0501 0.0000 -199916.9239 21340.2739 79.3124 0.0000 0.0000 -174697.1352 0.0000 -174697.1352 -174697.1352 0.0000 16067.7565 -5050.1471 534946.2959 16067.7565 -5050.1471
ENERGY: 760 259.0499 671.4968 2845.1402 0.0000 -200220.9313 21452.7362 82.3697 0.0000 0.0000 -174910.1385 0.0000 -174910.1385 -174910.1385 0.0000 16140.8459 -5006.8092 534946.2959 16140.8459 -5006.8092
ENERGY: 780 290.7257 670.1324 2838.4268 0.0000 -200796.6328 21673.7142 86.0379 0.0000 0.0000 -175237.5958 0.0000 -175237.5958 -175237.5958 0.0000 16266.3580 -4957.9188 534946.2959 16266.3580 -4957.9188
ENERGY: 800 213.0934 671.3745 2830.4554 0.0000 -201675.7951 22034.1795 94.1028 0.0000 0.0000 -175832.5895 0.0000 -175832.5895 -175832.5895 0.0000 16422.0916 -4895.0747 534946.2959 16422.0916 -4895.0747
TCL: Setting parameter constraintScaling to 0.0390625
TCL: Minimizing for 100 steps
ETITLE: TS BOND ANGLE DIHED IMPRP ELECT VDW BOUNDARY MISC KINETIC TOTAL TEMP POTENTIAL TOTAL3 TEMPAVG PRESSURE GPRESSURE VOLUME PRESSAVG GPRESSAVG
ENERGY: 800 213.0934 671.3745 2830.4554 0.0000 -201675.7951 22034.1795 47.0514 0.0000 0.0000 -175879.6409 0.0000 -175879.6409 -175879.6409 0.0000 16464.3495 -27227.6684 534946.2959 16464.3495 -27227.6684
ENERGY: 820 335.0292 715.3472 2839.4318 0.0000 -202003.6882 22158.5014 48.6723 0.0000 0.0000 -175906.7063 0.0000 -175906.7063 -175906.7063 0.0000 16522.6333 -4851.3732 534946.2959 16522.6333 -4851.3732
ENERGY: 840 199.4602 663.0568 2825.6848 0.0000 -202395.7581 22314.6265 51.1003 0.0000 0.0000 -176341.8295 0.0000 -176341.8295 -176341.8295 0.0000 16589.6666 -4813.0269 534946.2959 16589.6666 -4813.0269
ENERGY: 860 167.3696 664.4180 2830.3369 0.0000 -202534.3650 22356.2533 51.7733 0.0000 0.0000 -176464.2139 0.0000 -176464.2139 -176464.2139 0.0000 16617.7878 -4802.5989 534946.2959 16617.7878 -4802.5989
ENERGY: 880 170.2470 654.4001 2819.6709 0.0000 -203388.1542 22728.5591 54.9619 0.0000 0.0000 -176960.3153 0.0000 -176960.3153 -176960.3153 0.0000 16843.7887 -4674.8513 534946.2959 16843.7887 -4674.8513
ENERGY: 900 168.0450 671.3023 2820.2374 0.0000 -203959.1498 22982.3106 58.7683 0.0000 0.0000 -177258.4862 0.0000 -177258.4862 -177258.4862 0.0000 16939.7240 -4653.8429 534946.2959 16939.7240 -4653.8429
TCL: Setting parameter constraintScaling to 0.01953125
TCL: Minimizing for 100 steps
ETITLE: TS BOND ANGLE DIHED IMPRP ELECT VDW BOUNDARY MISC KINETIC TOTAL TEMP POTENTIAL TOTAL3 TEMPAVG PRESSURE GPRESSURE VOLUME PRESSAVG GPRESSAVG
ENERGY: 900 168.0450 671.3023 2820.2374 0.0000 -203959.1498 22982.3106 29.3842 0.0000 0.0000 -177287.8704 0.0000 -177287.8704 -177287.8704 0.0000 16964.1099 -27275.6059 534946.2959 16964.1099 -27275.6059
ENERGY: 920 165.9901 651.4606 2814.8681 0.0000 -204021.6759 23007.0972 29.4566 0.0000 0.0000 -177352.8033 0.0000 -177352.8033 -177352.8033 0.0000 16982.8890 -4610.9437 534946.2959 16982.8890 -4610.9437
ENERGY: 940 161.5816 662.3363 2817.4747 0.0000 -204302.2791 23122.1805 30.5533 0.0000 0.0000 -177508.1526 0.0000 -177508.1526 -177508.1526 0.0000 17042.8537 -4587.5265 534946.2959 17042.8537 -4587.5265
ENERGY: 960 220.7696 680.7175 2813.2925 0.0000 -204503.1516 23216.9315 31.1103 0.0000 0.0000 -177540.3302 0.0000 -177540.3302 -177540.3302 0.0000 17071.9872 -4577.5208 534946.2959 17071.9872 -4577.5208
ENERGY: 980 247.6206 675.1103 2816.4725 0.0000 -204815.7759 23342.0031 31.9925 0.0000 0.0000 -177702.5769 0.0000 -177702.5769 -177702.5769 0.0000 17125.6534 -4560.6848 534946.2959 17125.6534 -4560.6848
ENERGY: 1000 163.0324 656.0242 2812.2117 0.0000 -205258.3183 23541.4826 33.1489 0.0000 0.0000 -178052.4186 0.0000 -178052.4186 -178052.4186 0.0000 17265.2820 -4476.1505 534946.2959 17265.2820 -4476.1505
TCL: Setting parameter constraintScaling to 0
TCL: Minimizing for 5000 steps
ETITLE: TS BOND ANGLE DIHED IMPRP ELECT VDW BOUNDARY MISC KINETIC TOTAL TEMP POTENTIAL TOTAL3 TEMPAVG PRESSURE GPRESSURE VOLUME PRESSAVG GPRESSAVG
ENERGY: 1000 163.0324 656.0242 2812.2117 0.0000 -205258.3183 23541.4826 0.0000 0.0000 0.0000 -178085.5675 0.0000 -178085.5675 -178085.5675 0.0000 17291.6073 -27261.9772 534946.2959 17291.6073 -27261.9772
ENERGY: 2000 168.9906 664.2192 2802.1421 0.0000 -214516.2351 27666.8404 0.0000 0.0000 0.0000 -183214.0428 0.0000 -183214.0428 -183214.0428 0.0000 19461.9421 -3315.4751 534946.2959 19461.9421 -3315.4751
ENERGY: 3000 167.7767 665.5915 2797.5942 0.0000 -217590.2568 28972.8579 0.0000 0.0000 0.0000 -184986.4365 0.0000 -184986.4365 -184986.4365 0.0000 20161.4467 -2914.1141 534946.2959 20161.4467 -2914.1141
ENERGY: 4000 166.8355 666.1549 2785.7988 0.0000 -218953.0943 29506.4031 0.0000 0.0000 0.0000 -185827.9020 0.0000 -185827.9020 -185827.9020 0.0000 20439.1276 -2769.9373 534946.2959 20439.1276 -2769.9373
ENERGY: 5000 211.4474 674.7257 2789.8682 0.0000 -219634.0945 29789.3218 0.0000 0.0000 0.0000 -186168.7314 0.0000 -186168.7314 -186168.7314 0.0000 20582.6876 -2703.6362 534946.2959 20582.6876 -2703.6362
ENERGY: 6000 166.9083 666.4410 2791.5322 0.0000 -219908.0710 29865.1527 0.0000 0.0000 0.0000 -186418.0368 0.0000 -186418.0368 -186418.0368 0.0000 20628.2737 -2683.8567 534946.2959 20628.2737 -2683.8567
