Info: SIMULATION PARAMETERS:
Info: TIMESTEP               2
Info: NUMBER OF STEPS        0
Info: STEPS PER CYCLE        10
Info: PERIODIC CELL BASIS 1  72.449 0 0
Info: PERIODIC CELL BASIS 2  0 93.247 0
Info: PERIODIC CELL BASIS 3  0 0 79.185
Info: PERIODIC CELL CENTER   -0.248 -0.156 -0.047
Info: WRAPPING WATERS AROUND PERIODIC BOUNDARIES ON OUTPUT.
Info: WRAPPING ALL CLUSTERS AROUND PERIODIC BOUNDARIES ON OUTPUT.
Info: FIRST LDB TIMESTEP     50
Info: LAST LDB TIMESTEP     -1
Info: HOM BACKGROUND SCALING 1
Info: PME BACKGROUND SCALING 1
Info: MIN ATOMS PER PATCH    40
Info: INITIAL TEMPERATURE    0
Info: CENTER OF MASS MOVING INITIALLY? NO
Info: DIELECTRIC             1
Info: EXCLUDE                SCALED ONE-FOUR
Info: 1-4 ELECTROSTATICS SCALED BY 0.833333
Info: MODIFIED 1-4 VDW PARAMETERS WILL BE USED
Info: NO DCD TRAJECTORY OUTPUT
Info: NO EXTENDED SYSTEM TRAJECTORY OUTPUT
Info: NO VELOCITY DCD OUTPUT
Info: NO FORCE DCD OUTPUT
Info: OUTPUT FILENAME        ../replicas/rep11/equilibration/eq0
Info: NO RESTART FILE
Info: SWITCHING ACTIVE
Info: SWITCHING ON           10
Info: SWITCHING OFF          12
Info: PAIRLIST DISTANCE      13.5
Info: PAIRLIST SHRINK RATE   0.01
Info: PAIRLIST GROW RATE     0.01
Info: PAIRLIST TRIGGER       0.3
Info: PAIRLISTS PER CYCLE    2
Info: PAIRLISTS ENABLED
Info: MARGIN                 0
Info: HYDROGEN GROUP CUTOFF  2.5
Info: PATCH DIMENSION        16
Info: ENERGY OUTPUT STEPS    500
Info: CROSSTERM ENERGY INCLUDED IN DIHEDRAL
Info: TIMING OUTPUT STEPS    5000
Info: PRESSURE OUTPUT STEPS  500
Info: HARMONIC CONSTRAINTS ACTIVE
Info: HARMONIC CONS EXP      2
Info: HARMONIC CONS SCALING  10
Info: CONJUGATE GRADIENT MINIMIZATION ACTIVE
Info: LINE MINIMIZATION GOAL = 0.001
Info: BABY STEP SIZE = 0.01
Info: TINY STEP SIZE = 1e-06
Info: PARTICLE MESH EWALD (PME) ACTIVE
Info: PME TOLERANCE               1e-06
Info: PME EWALD COEFFICIENT       0.257952
Info: PME INTERPOLATION ORDER     4
Info: PME GRID DIMENSIONS         80 96 80
Info: PME MAXIMUM GRID SPACING    1
Info: FULL ELECTROSTATIC EVALUATION FREQUENCY      2
Info: USING VERLET I (r-RESPA) MTS SCHEME.
Info: C1 SPLITTING OF LONG RANGE ELECTROSTATICS
Info: PLACING ATOMS IN PATCHES BY HYDROGEN GROUPS
Info: RIGID BONDS TO HYDROGEN : ALL
Info:         ERROR TOLERANCE : 1e-05
Info:          MAX ITERATIONS : 100
Info: RIGID WATER USING SETTLE ALGORITHM
Info: RANDOM NUMBER SEED     1503248884
Info: USE HYDROGEN BONDS?    NO
Info: Using AMBER format force field!
Info: AMBER PARM FILE        ../build/complex.top
Info: COORDINATE PDB         ../build/complex.pdb
Info: Exclusions in PARM file will be ignored!
Info: SCNB (VDW SCALING)     2
Info: USING ARITHMETIC MEAN TO COMBINE L-J SIGMA PARAMETERS
Info: SUMMARY OF PARAMETERS:
Info: 71 BONDS
Info: 145 ANGLES
Info: 76 DIHEDRAL
Info: 0 IMPROPER
Info: 0 CROSSTERM
Info: 0 VDW
Info: 190 VDW_PAIRS
Info: 0 NBTHOLE_PAIRS
Info: STRUCTURE SUMMARY:
Info: 49394 ATOMS
Info: 49448 BONDS
Info: 8698 ANGLES
Info: 18780 DIHEDRALS
Info: 0 IMPROPERS
Info: 0 CROSSTERMS
Info: 0 EXCLUSIONS
Info: 2336 CONSTRAINTS
Info: 47058 RIGID BONDS
Info: 101124 DEGREES OF FREEDOM
Info: 17225 HYDROGEN GROUPS
Info: 4 ATOMS IN LARGEST HYDROGEN GROUP
Info: 17225 MIGRATION GROUPS
Info: 4 ATOMS IN LARGEST MIGRATION GROUP
Info: TOTAL MASS = 301478 amu
Info: TOTAL CHARGE = 1.00115e-05 e
Info: MASS DENSITY = 0.935846 g/cm^3
Info: ATOM DENSITY = 0.0923345 atoms/A^3
Info: ADDED 70656 IMPLICIT EXCLUSIONS
Info: NONBONDED TABLE R-SQUARED SPACING: 0.0625
Info: NONBONDED TABLE SIZE: 769 POINTS
Info: REMOVING COM VELOCITY 0 0 0
TCL: Minimizing for 100 steps
ETITLE: TS BOND ANGLE DIHED IMPRP ELECT VDW BOUNDARY MISC KINETIC TOTAL TEMP POTENTIAL TOTAL3 TEMPAVG PRESSURE GPRESSURE VOLUME PRESSAVG GPRESSAVG
ENERGY: 0 155.4176 1012.2698 2855.7272 0.0000 -154496.7912 207729.2052 0.0468 0.0000 0.0000 57255.8754 0.0000 57255.8754 57255.8754 0.0000 116350.2532 86546.1670 534946.2959 116350.2532 86546.1670
ENERGY: 20 304.7542 935.7911 2893.4663 0.0000 -158672.9398 17936.6598 143.9454 0.0000 0.0000 -136458.3232 0.0000 -136458.3232 -136458.3232 0.0000 16523.9391 -239.4554 534946.2959 16523.9391 -239.4554
ENERGY: 40 198.7429 799.5725 2896.9273 0.0000 -162811.4538 16417.9535 221.3030 0.0000 0.0000 -142276.9546 0.0000 -142276.9546 -142276.9546 0.0000 15011.2701 -2135.4700 534946.2959 15011.2701 -2135.4700
ENERGY: 60 130.5284 715.3440 2898.2166 0.0000 -167496.1560 15446.7541 315.2796 0.0000 0.0000 -147990.0333 0.0000 -147990.0333 -147990.0333 0.0000 13793.8839 -3799.3984 534946.2959 13793.8839 -3799.3984
ENERGY: 80 431.2742 765.6311 2904.3784 0.0000 -169937.5200 15121.1535 372.0120 0.0000 0.0000 -150343.0708 0.0000 -150343.0708 -150343.0708 0.0000 13270.3329 -4577.2421 534946.2959 13270.3329 -4577.2421
ENERGY: 100 119.3892 710.0606 2905.2589 0.0000 -171259.7187 14991.7862 387.3613 0.0000 0.0000 -152145.8624 0.0000 -152145.8624 -152145.8624 0.0000 13056.2640 -4908.1749 534946.2959 13056.2640 -4908.1749
TCL: Setting parameter constraintScaling to 5.0
TCL: Minimizing for 100 steps
ETITLE: TS BOND ANGLE DIHED IMPRP ELECT VDW BOUNDARY MISC KINETIC TOTAL TEMP POTENTIAL TOTAL3 TEMPAVG PRESSURE GPRESSURE VOLUME PRESSAVG GPRESSAVG
ENERGY: 100 119.3892 710.0606 2905.2589 0.0000 -171259.7186 14991.7862 193.6807 0.0000 0.0000 -152339.5431 0.0000 -152339.5431 -152339.5431 0.0000 13672.7703 -23021.8208 534946.2959 13672.7703 -23021.8208
ENERGY: 120 166.4525 692.2081 2910.8260 0.0000 -172914.7729 14833.3507 281.9273 0.0000 0.0000 -154030.0082 0.0000 -154030.0082 -154030.0082 0.0000 13225.2905 -4913.0031 534946.2959 13225.2905 -4913.0031
ENERGY: 140 225.1233 696.9084 2912.9606 0.0000 -174149.4982 14732.6725 321.1851 0.0000 0.0000 -155260.6483 0.0000 -155260.6483 -155260.6483 0.0000 12997.6303 -5265.6532 534946.2959 12997.6303 -5265.6532
ENERGY: 160 270.2345 684.1503 2923.2901 0.0000 -176284.6328 14758.1089 383.2598 0.0000 0.0000 -157265.5891 0.0000 -157265.5891 -157265.5891 0.0000 12739.5357 -5745.2679 534946.2959 12739.5357 -5745.2679
ENERGY: 180 172.7047 724.9577 2929.2190 0.0000 -179192.7152 15054.1870 478.3401 0.0000 0.0000 -159833.3068 0.0000 -159833.3068 -159833.3068 0.0000 12525.3829 -6233.4952 534946.2959 12525.3829 -6233.4952
ENERGY: 200 239.6971 694.1081 2941.4013 0.0000 -181558.2577 15587.4729 546.3304 0.0000 0.0000 -161549.2479 0.0000 -161549.2479 -161549.2479 0.0000 12582.6796 -6420.0823 534946.2959 12582.6796 -6420.0823
TCL: Setting parameter constraintScaling to 2.5
TCL: Minimizing for 100 steps
ETITLE: TS BOND ANGLE DIHED IMPRP ELECT VDW BOUNDARY MISC KINETIC TOTAL TEMP POTENTIAL TOTAL3 TEMPAVG PRESSURE GPRESSURE VOLUME PRESSAVG GPRESSAVG
ENERGY: 200 239.6971 694.1081 2941.4013 0.0000 -181558.2578 15587.4729 273.1652 0.0000 0.0000 -161822.4132 0.0000 -161822.4132 -161822.4132 0.0000 13229.6646 -25651.2119 534946.2959 13229.6646 -25651.2119
ENERGY: 220 245.2280 676.0918 2932.9754 0.0000 -182071.8928 15473.4414 336.6936 0.0000 0.0000 -162407.4626 0.0000 -162407.4626 -162407.4626 0.0000 12975.2537 -6081.6032 534946.2959 12975.2537 -6081.6032
ENERGY: 240 153.7269 693.9026 2928.7674 0.0000 -182681.1207 15530.1162 346.9465 0.0000 0.0000 -163027.6610 0.0000 -163027.6610 -163027.6610 0.0000 13034.0579 -6126.6344 534946.2959 13034.0579 -6126.6344
ENERGY: 260 232.7458 705.1814 2922.3967 0.0000 -183757.8176 15758.4723 380.1630 0.0000 0.0000 -163758.8585 0.0000 -163758.8585 -163758.8585 0.0000 13013.6787 -6236.3288 534946.2959 13013.6787 -6236.3288
ENERGY: 280 202.4425 704.5754 2917.5624 0.0000 -185468.8579 16243.8816 458.9341 0.0000 0.0000 -164941.4618 0.0000 -164941.4618 -164941.4618 0.0000 13140.4947 -6343.1515 534946.2959 13140.4947 -6343.1515
ENERGY: 300 118.2642 637.1481 2916.5606 0.0000 -186064.1115 16435.8523 482.4917 0.0000 0.0000 -165473.7946 0.0000 -165473.7946 -165473.7946 0.0000 13202.2070 -6339.6033 534946.2959 13202.2070 -6339.6033
TCL: Setting parameter constraintScaling to 1.25
TCL: Minimizing for 100 steps
ETITLE: TS BOND ANGLE DIHED IMPRP ELECT VDW BOUNDARY MISC KINETIC TOTAL TEMP POTENTIAL TOTAL3 TEMPAVG PRESSURE GPRESSURE VOLUME PRESSAVG GPRESSAVG
ENERGY: 300 118.2642 637.1481 2916.5606 0.0000 -186064.1115 16435.8523 241.2459 0.0000 0.0000 -165715.0404 0.0000 -165715.0404 -165715.0404 0.0000 13651.2421 -26346.3459 534946.2959 13651.2421 -26346.3459
ENERGY: 320 276.0755 655.6754 2911.1524 0.0000 -186738.2338 16602.5109 275.4064 0.0000 0.0000 -166017.4132 0.0000 -166017.4132 -166017.4132 0.0000 13632.6026 -5981.6586 534946.2959 13632.6026 -5981.6586
ENERGY: 340 239.9287 646.2062 2911.3853 0.0000 -187499.7986 16855.3705 300.0297 0.0000 0.0000 -166546.8783 0.0000 -166546.8783 -166546.8783 0.0000 13663.9428 -6014.9269 534946.2959 13663.9428 -6014.9269
ENERGY: 360 237.4083 689.8889 2909.2691 0.0000 -188396.6580 17138.0833 337.9863 0.0000 0.0000 -167084.0221 0.0000 -167084.0221 -167084.0221 0.0000 13808.5069 -6003.4148 534946.2959 13808.5069 -6003.4148
ENERGY: 380 235.4092 676.0443 2904.4644 0.0000 -189239.7404 17443.2435 356.7661 0.0000 0.0000 -167623.8129 0.0000 -167623.8129 -167623.8129 0.0000 13813.2801 -6055.6255 534946.2959 13813.2801 -6055.6255
ENERGY: 400 140.2420 657.7016 2906.5226 0.0000 -190131.6455 17784.8796 375.4043 0.0000 0.0000 -168266.8954 0.0000 -168266.8954 -168266.8954 0.0000 14043.9333 -5947.7467 534946.2959 14043.9333 -5947.7467
TCL: Setting parameter constraintScaling to 0.625
TCL: Minimizing for 100 steps
ETITLE: TS BOND ANGLE DIHED IMPRP ELECT VDW BOUNDARY MISC KINETIC TOTAL TEMP POTENTIAL TOTAL3 TEMPAVG PRESSURE GPRESSURE VOLUME PRESSAVG GPRESSAVG
ENERGY: 400 140.2420 657.7016 2906.5226 0.0000 -190131.6455 17784.8796 187.7021 0.0000 0.0000 -168454.5975 0.0000 -168454.5975 -168454.5975 0.0000 14335.1931 -26614.3224 534946.2959 14335.1931 -26614.3224
ENERGY: 420 153.5982 668.2993 2898.6521 0.0000 -190481.2744 17866.3106 211.2517 0.0000 0.0000 -168683.1625 0.0000 -168683.1625 -168683.1625 0.0000 14296.0394 -5733.2370 534946.2959 14296.0394 -5733.2370
ENERGY: 440 206.8954 690.8059 2893.7639 0.0000 -191840.9026 18308.6272 267.3525 0.0000 0.0000 -169473.4577 0.0000 -169473.4577 -169473.4577 0.0000 14357.5086 -5806.4310 534946.2959 14357.5086 -5806.4310
ENERGY: 460 151.0541 655.5226 2885.3153 0.0000 -192341.2951 18494.6162 280.3031 0.0000 0.0000 -169874.4839 0.0000 -169874.4839 -169874.4839 0.0000 14501.0230 -5752.2797 534946.2959 14501.0230 -5752.2797
ENERGY: 480 366.5676 682.7117 2897.7718 0.0000 -193238.1050 18894.0298 273.7931 0.0000 0.0000 -170123.2311 0.0000 -170123.2311 -170123.2311 0.0000 14702.0117 -5633.9703 534946.2959 14702.0117 -5633.9703
ENERGY: 500 167.9221 647.9102 2891.0106 0.0000 -193828.3060 19118.5140 284.4153 0.0000 0.0000 -170718.5338 0.0000 -170718.5338 -170718.5338 0.0000 14836.3840 -5567.2257 534946.2959 14836.3840 -5567.2257
TCL: Setting parameter constraintScaling to 0.3125
TCL: Minimizing for 100 steps
ETITLE: TS BOND ANGLE DIHED IMPRP ELECT VDW BOUNDARY MISC KINETIC TOTAL TEMP POTENTIAL TOTAL3 TEMPAVG PRESSURE GPRESSURE VOLUME PRESSAVG GPRESSAVG
ENERGY: 500 167.9221 647.9102 2891.0106 0.0000 -193828.3060 19118.5140 142.2077 0.0000 0.0000 -170860.7415 0.0000 -170860.7415 -170860.7415 0.0000 15026.9184 -26790.9940 534946.2959 15026.9184 -26790.9940
ENERGY: 520 273.4976 678.6741 2880.3846 0.0000 -194247.4628 19233.1729 161.7451 0.0000 0.0000 -171019.9886 0.0000 -171019.9886 -171019.9886 0.0000 15003.9089 -5448.5141 534946.2959 15003.9089 -5448.5141
ENERGY: 540 171.7626 650.9113 2875.1452 0.0000 -194737.0772 19398.6782 176.8806 0.0000 0.0000 -171463.6993 0.0000 -171463.6993 -171463.6993 0.0000 15050.2359 -5452.8219 534946.2959 15050.2359 -5452.8219
ENERGY: 560 158.3901 655.3301 2869.7507 0.0000 -195639.7740 19733.7828 202.6310 0.0000 0.0000 -172019.8893 0.0000 -172019.8893 -172019.8893 0.0000 15162.4791 -5444.7245 534946.2959 15162.4791 -5444.7245
ENERGY: 580 401.8573 720.9675 2872.7462 0.0000 -196473.0349 20083.2504 204.4214 0.0000 0.0000 -172189.7920 0.0000 -172189.7920 -172189.7920 0.0000 15354.6140 -5353.9328 534946.2959 15354.6140 -5353.9328
ENERGY: 600 167.0767 643.3962 2869.4900 0.0000 -196841.9368 20241.4074 207.9261 0.0000 0.0000 -172712.6405 0.0000 -172712.6405 -172712.6405 0.0000 15449.0003 -5289.6564 534946.2959 15449.0003 -5289.6564
TCL: Setting parameter constraintScaling to 0.15625
TCL: Minimizing for 100 steps
ETITLE: TS BOND ANGLE DIHED IMPRP ELECT VDW BOUNDARY MISC KINETIC TOTAL TEMP POTENTIAL TOTAL3 TEMPAVG PRESSURE GPRESSURE VOLUME PRESSAVG GPRESSAVG
ENERGY: 600 167.0767 643.3962 2869.4900 0.0000 -196841.9368 20241.4074 103.9630 0.0000 0.0000 -172816.6035 0.0000 -172816.6035 -172816.6035 0.0000 15568.1939 -26965.3260 534946.2959 15568.1939 -26965.3260
ENERGY: 620 204.6799 648.1623 2863.5155 0.0000 -197158.8960 20320.9790 113.2444 0.0000 0.0000 -173008.3150 0.0000 -173008.3150 -173008.3150 0.0000 15553.5071 -5224.4714 534946.2959 15553.5071 -5224.4714
ENERGY: 640 164.1793 660.4217 2859.6824 0.0000 -197387.2231 20399.9617 119.0630 0.0000 0.0000 -173183.9151 0.0000 -173183.9151 -173183.9151 0.0000 15600.4466 -5213.3927 534946.2959 15600.4466 -5213.3927
ENERGY: 660 184.3470 664.0388 2856.3854 0.0000 -198112.9521 20665.6245 133.7889 0.0000 0.0000 -173608.7676 0.0000 -173608.7676 -173608.7676 0.0000 15688.0909 -5198.5312 534946.2959 15688.0909 -5198.5312
ENERGY: 680 223.9117 664.9238 2876.8943 0.0000 -198975.4833 21068.1595 130.6121 0.0000 0.0000 -174010.9820 0.0000 -174010.9820 -174010.9820 0.0000 15943.1980 -5042.8096 534946.2959 15943.1980 -5042.8096
ENERGY: 700 151.7366 680.9669 2877.6399 0.0000 -200379.5405 21725.5305 145.7926 0.0000 0.0000 -174797.8741 0.0000 -174797.8741 -174797.8741 0.0000 16356.2291 -4818.7882 534946.2959 16356.2291 -4818.7882
TCL: Setting parameter constraintScaling to 0.078125
TCL: Minimizing for 100 steps
ETITLE: TS BOND ANGLE DIHED IMPRP ELECT VDW BOUNDARY MISC KINETIC TOTAL TEMP POTENTIAL TOTAL3 TEMPAVG PRESSURE GPRESSURE VOLUME PRESSAVG GPRESSAVG
ENERGY: 700 151.7366 680.9669 2877.6399 0.0000 -200379.5405 21725.5305 72.8963 0.0000 0.0000 -174870.7704 0.0000 -174870.7704 -174870.7704 0.0000 16430.5449 -26956.5770 534946.2959 16430.5449 -26956.5770
ENERGY: 720 165.0119 652.4496 2838.8159 0.0000 -200634.0020 21679.1500 81.2194 0.0000 0.0000 -175217.3552 0.0000 -175217.3552 -175217.3552 0.0000 16278.2381 -4917.2269 534946.2959 16278.2381 -4917.2269
ENERGY: 740 168.7761 666.1612 2839.3235 0.0000 -200849.8079 21734.6030 86.0005 0.0000 0.0000 -175354.9436 0.0000 -175354.9436 -175354.9436 0.0000 16257.1934 -4952.7660 534946.2959 16257.1934 -4952.7660
ENERGY: 760 187.8657 674.8724 2836.9990 0.0000 -201217.8500 21867.8502 91.4591 0.0000 0.0000 -175558.8036 0.0000 -175558.8036 -175558.8036 0.0000 16308.1772 -4945.7064 534946.2959 16308.1772 -4945.7064
ENERGY: 780 165.6185 659.4909 2836.1826 0.0000 -201494.3886 21986.1446 89.2308 0.0000 0.0000 -175757.7211 0.0000 -175757.7211 -175757.7211 0.0000 16438.4587 -4857.9833 534946.2959 16438.4587 -4857.9833
ENERGY: 800 174.1340 680.1501 2862.1157 0.0000 -202112.7848 22311.3602 90.0425 0.0000 0.0000 -175994.9823 0.0000 -175994.9823 -175994.9823 0.0000 16660.0913 -4704.5707 534946.2959 16660.0913 -4704.5707
TCL: Setting parameter constraintScaling to 0.0390625
TCL: Minimizing for 100 steps
ETITLE: TS BOND ANGLE DIHED IMPRP ELECT VDW BOUNDARY MISC KINETIC TOTAL TEMP POTENTIAL TOTAL3 TEMPAVG PRESSURE GPRESSURE VOLUME PRESSAVG GPRESSAVG
ENERGY: 800 174.1340 680.1501 2862.1157 0.0000 -202112.7848 22311.3602 45.0213 0.0000 0.0000 -176040.0035 0.0000 -176040.0035 -176040.0035 0.0000 16701.8672 -27101.2667 534946.2959 16701.8672 -27101.2667
ENERGY: 820 165.6231 657.1308 2829.5139 0.0000 -202299.5016 22284.9193 48.4687 0.0000 0.0000 -176313.8457 0.0000 -176313.8457 -176313.8457 0.0000 16604.2394 -4777.8852 534946.2959 16604.2394 -4777.8852
ENERGY: 840 169.9357 671.1745 2827.6896 0.0000 -202563.7947 22379.7305 51.4897 0.0000 0.0000 -176463.7748 0.0000 -176463.7748 -176463.7748 0.0000 16613.1999 -4802.8798 534946.2959 16613.1999 -4802.8798
ENERGY: 860 170.3571 670.5263 2826.9235 0.0000 -202807.4218 22478.9697 53.1242 0.0000 0.0000 -176607.5210 0.0000 -176607.5210 -176607.5210 0.0000 16663.1753 -4777.8332 534946.2959 16663.1753 -4777.8332
ENERGY: 880 208.8106 683.4142 2829.6172 0.0000 -203083.7428 22604.7578 52.6468 0.0000 0.0000 -176704.4963 0.0000 -176704.4963 -176704.4963 0.0000 16723.8055 -4742.9913 534946.2959 16723.8055 -4742.9913
ENERGY: 900 163.2291 661.8389 2831.6241 0.0000 -203211.4534 22672.1244 52.5882 0.0000 0.0000 -176830.0486 0.0000 -176830.0486 -176830.0486 0.0000 16816.7612 -4678.8215 534946.2959 16816.7612 -4678.8215
TCL: Setting parameter constraintScaling to 0.01953125
TCL: Minimizing for 100 steps
ETITLE: TS BOND ANGLE DIHED IMPRP ELECT VDW BOUNDARY MISC KINETIC TOTAL TEMP POTENTIAL TOTAL3 TEMPAVG PRESSURE GPRESSURE VOLUME PRESSAVG GPRESSAVG
ENERGY: 900 163.2291 661.8389 2831.6241 0.0000 -203211.4534 22672.1244 26.2941 0.0000 0.0000 -176856.3427 0.0000 -176856.3427 -176856.3427 0.0000 16839.5301 -27216.6079 534946.2959 16839.5301 -27216.6079
ENERGY: 920 165.2683 665.8003 2821.2121 0.0000 -203406.3058 22726.2763 27.3768 0.0000 0.0000 -177000.3720 0.0000 -177000.3720 -177000.3720 0.0000 16835.4725 -4675.8530 534946.2959 16835.4725 -4675.8530
ENERGY: 940 187.2323 684.7622 2824.7622 0.0000 -203732.9986 22870.9145 29.4124 0.0000 0.0000 -177135.9151 0.0000 -177135.9151 -177135.9151 0.0000 16858.2385 -4688.0537 534946.2959 16858.2385 -4688.0537
ENERGY: 960 169.7291 667.1127 2817.4404 0.0000 -203841.7854 22896.4651 28.8812 0.0000 0.0000 -177262.1569 0.0000 -177262.1569 -177262.1569 0.0000 16907.1280 -4655.5955 534946.2959 16907.1280 -4655.5955
ENERGY: 980 316.1260 716.9603 2828.5623 0.0000 -204282.9406 23129.7565 29.3380 0.0000 0.0000 -177262.1974 0.0000 -177262.1974 -177262.1974 0.0000 17095.2731 -4540.1732 534946.2959 17095.2731 -4540.1732
ENERGY: 1000 172.3753 662.1127 2823.0685 0.0000 -204697.6834 23310.1947 30.6997 0.0000 0.0000 -177699.2325 0.0000 -177699.2325 -177699.2325 0.0000 17167.0427 -4505.7829 534946.2959 17167.0427 -4505.7829
TCL: Setting parameter constraintScaling to 0
TCL: Minimizing for 5000 steps
ETITLE: TS BOND ANGLE DIHED IMPRP ELECT VDW BOUNDARY MISC KINETIC TOTAL TEMP POTENTIAL TOTAL3 TEMPAVG PRESSURE GPRESSURE VOLUME PRESSAVG GPRESSAVG
ENERGY: 1000 172.3753 662.1127 2823.0685 0.0000 -204697.6834 23310.1947 0.0000 0.0000 0.0000 -177729.9321 0.0000 -177729.9321 -177729.9321 0.0000 17192.2474 -27218.9778 534946.2959 17192.2474 -27218.9778
ENERGY: 2000 184.2465 668.8037 2801.7842 0.0000 -214403.8204 27602.0966 0.0000 0.0000 0.0000 -183146.8894 0.0000 -183146.8894 -183146.8894 0.0000 19416.9292 -3346.6061 534946.2959 19416.9292 -3346.6061
ENERGY: 3000 168.0815 664.6436 2794.1206 0.0000 -217209.8528 28795.9239 0.0000 0.0000 0.0000 -184787.0831 0.0000 -184787.0831 -184787.0831 0.0000 20064.4126 -2996.5941 534946.2959 20064.4126 -2996.5941
ENERGY: 4000 166.4869 664.0456 2788.7391 0.0000 -218597.7567 29304.7706 0.0000 0.0000 0.0000 -185673.7144 0.0000 -185673.7144 -185673.7144 0.0000 20328.4134 -2875.1369 534946.2959 20328.4134 -2875.1369
ENERGY: 5000 166.4314 662.7087 2787.2544 0.0000 -219316.4974 29567.6506 0.0000 0.0000 0.0000 -186132.4524 0.0000 -186132.4524 -186132.4524 0.0000 20463.3170 -2814.2070 534946.2959 20463.3170 -2814.2070
ENERGY: 6000 166.3452 663.4697 2788.4535 0.0000 -219753.5755 29719.4998 0.0000 0.0000 0.0000 -186415.8073 0.0000 -186415.8073 -186415.8073 0.0000 20542.8095 -2775.1610 534946.2959 20542.8095 -2775.1610
