Info: SIMULATION PARAMETERS:
Info: TIMESTEP               2
Info: NUMBER OF STEPS        0
Info: STEPS PER CYCLE        10
Info: PERIODIC CELL BASIS 1  72.449 0 0
Info: PERIODIC CELL BASIS 2  0 93.247 0
Info: PERIODIC CELL BASIS 3  0 0 79.185
Info: PERIODIC CELL CENTER   -0.248 -0.156 -0.047
Info: WRAPPING WATERS AROUND PERIODIC BOUNDARIES ON OUTPUT.
Info: WRAPPING ALL CLUSTERS AROUND PERIODIC BOUNDARIES ON OUTPUT.
Info: FIRST LDB TIMESTEP     50
Info: LAST LDB TIMESTEP     -1
Info: HOM BACKGROUND SCALING 1
Info: PME BACKGROUND SCALING 1
Info: MIN ATOMS PER PATCH    40
Info: INITIAL TEMPERATURE    0
Info: CENTER OF MASS MOVING INITIALLY? NO
Info: DIELECTRIC             1
Info: EXCLUDE                SCALED ONE-FOUR
Info: 1-4 ELECTROSTATICS SCALED BY 0.833333
Info: MODIFIED 1-4 VDW PARAMETERS WILL BE USED
Info: NO DCD TRAJECTORY OUTPUT
Info: NO EXTENDED SYSTEM TRAJECTORY OUTPUT
Info: NO VELOCITY DCD OUTPUT
Info: NO FORCE DCD OUTPUT
Info: OUTPUT FILENAME        ../replicas/rep118/equilibration/eq0
Info: NO RESTART FILE
Info: SWITCHING ACTIVE
Info: SWITCHING ON           10
Info: SWITCHING OFF          12
Info: PAIRLIST DISTANCE      13.5
Info: PAIRLIST SHRINK RATE   0.01
Info: PAIRLIST GROW RATE     0.01
Info: PAIRLIST TRIGGER       0.3
Info: PAIRLISTS PER CYCLE    2
Info: PAIRLISTS ENABLED
Info: MARGIN                 0
Info: HYDROGEN GROUP CUTOFF  2.5
Info: PATCH DIMENSION        16
Info: ENERGY OUTPUT STEPS    500
Info: CROSSTERM ENERGY INCLUDED IN DIHEDRAL
Info: TIMING OUTPUT STEPS    5000
Info: PRESSURE OUTPUT STEPS  500
Info: HARMONIC CONSTRAINTS ACTIVE
Info: HARMONIC CONS EXP      2
Info: HARMONIC CONS SCALING  10
Info: CONJUGATE GRADIENT MINIMIZATION ACTIVE
Info: LINE MINIMIZATION GOAL = 0.001
Info: BABY STEP SIZE = 0.01
Info: TINY STEP SIZE = 1e-06
Info: PARTICLE MESH EWALD (PME) ACTIVE
Info: PME TOLERANCE               1e-06
Info: PME EWALD COEFFICIENT       0.257952
Info: PME INTERPOLATION ORDER     4
Info: PME GRID DIMENSIONS         80 96 80
Info: PME MAXIMUM GRID SPACING    1
Info: FULL ELECTROSTATIC EVALUATION FREQUENCY      2
Info: USING VERLET I (r-RESPA) MTS SCHEME.
Info: C1 SPLITTING OF LONG RANGE ELECTROSTATICS
Info: PLACING ATOMS IN PATCHES BY HYDROGEN GROUPS
Info: RIGID BONDS TO HYDROGEN : ALL
Info:         ERROR TOLERANCE : 1e-05
Info:          MAX ITERATIONS : 100
Info: RIGID WATER USING SETTLE ALGORITHM
Info: RANDOM NUMBER SEED     1503710764
Info: USE HYDROGEN BONDS?    NO
Info: Using AMBER format force field!
Info: AMBER PARM FILE        ../build/complex.top
Info: COORDINATE PDB         ../build/complex.pdb
Info: Exclusions in PARM file will be ignored!
Info: SCNB (VDW SCALING)     2
Info: USING ARITHMETIC MEAN TO COMBINE L-J SIGMA PARAMETERS
Info: SUMMARY OF PARAMETERS:
Info: 71 BONDS
Info: 145 ANGLES
Info: 76 DIHEDRAL
Info: 0 IMPROPER
Info: 0 CROSSTERM
Info: 0 VDW
Info: 190 VDW_PAIRS
Info: 0 NBTHOLE_PAIRS
Info: STRUCTURE SUMMARY:
Info: 49394 ATOMS
Info: 49448 BONDS
Info: 8698 ANGLES
Info: 18780 DIHEDRALS
Info: 0 IMPROPERS
Info: 0 CROSSTERMS
Info: 0 EXCLUSIONS
Info: 2336 CONSTRAINTS
Info: 47058 RIGID BONDS
Info: 101124 DEGREES OF FREEDOM
Info: 17225 HYDROGEN GROUPS
Info: 4 ATOMS IN LARGEST HYDROGEN GROUP
Info: 17225 MIGRATION GROUPS
Info: 4 ATOMS IN LARGEST MIGRATION GROUP
Info: TOTAL MASS = 301478 amu
Info: TOTAL CHARGE = 1.00115e-05 e
Info: MASS DENSITY = 0.935846 g/cm^3
Info: ATOM DENSITY = 0.0923345 atoms/A^3
Info: ADDED 70656 IMPLICIT EXCLUSIONS
Info: NONBONDED TABLE R-SQUARED SPACING: 0.0625
Info: NONBONDED TABLE SIZE: 769 POINTS
Info: REMOVING COM VELOCITY 0 0 0
TCL: Minimizing for 100 steps
ETITLE: TS BOND ANGLE DIHED IMPRP ELECT VDW BOUNDARY MISC KINETIC TOTAL TEMP POTENTIAL TOTAL3 TEMPAVG PRESSURE GPRESSURE VOLUME PRESSAVG GPRESSAVG
ENERGY: 0 155.4176 1012.2698 2855.7272 0.0000 -154496.7912 207729.2052 0.0468 0.0000 0.0000 57255.8754 0.0000 57255.8754 57255.8754 0.0000 116350.2532 86546.1670 534946.2959 116350.2532 86546.1670
ENERGY: 20 304.7551 935.7911 2893.4663 0.0000 -158672.9406 17936.6594 143.9454 0.0000 0.0000 -136458.3233 0.0000 -136458.3233 -136458.3233 0.0000 16523.9387 -239.4559 534946.2959 16523.9387 -239.4559
ENERGY: 40 198.7443 799.5727 2896.9273 0.0000 -162811.4535 16417.9536 221.3030 0.0000 0.0000 -142276.9526 0.0000 -142276.9526 -142276.9526 0.0000 15011.2702 -2135.4699 534946.2959 15011.2702 -2135.4699
ENERGY: 60 130.5283 715.3440 2898.2166 0.0000 -167496.1567 15446.7540 315.2796 0.0000 0.0000 -147990.0342 0.0000 -147990.0342 -147990.0342 0.0000 13793.8838 -3799.3986 534946.2959 13793.8838 -3799.3986
ENERGY: 80 431.2730 765.6307 2904.3786 0.0000 -169937.5289 15121.1525 372.0122 0.0000 0.0000 -150343.0819 0.0000 -150343.0819 -150343.0819 0.0000 13270.3309 -4577.2446 534946.2959 13270.3309 -4577.2446
ENERGY: 100 119.3862 710.0600 2905.2590 0.0000 -171259.7159 14991.7866 387.3613 0.0000 0.0000 -152145.8626 0.0000 -152145.8626 -152145.8626 0.0000 13056.2649 -4908.1732 534946.2959 13056.2649 -4908.1732
TCL: Setting parameter constraintScaling to 5.0
TCL: Minimizing for 100 steps
ETITLE: TS BOND ANGLE DIHED IMPRP ELECT VDW BOUNDARY MISC KINETIC TOTAL TEMP POTENTIAL TOTAL3 TEMPAVG PRESSURE GPRESSURE VOLUME PRESSAVG GPRESSAVG
ENERGY: 100 119.3862 710.0600 2905.2590 0.0000 -171259.7159 14991.7866 193.6807 0.0000 0.0000 -152339.5433 0.0000 -152339.5433 -152339.5433 0.0000 13672.7711 -23021.8196 534946.2959 13672.7711 -23021.8196
ENERGY: 120 108.8866 687.5856 2912.9268 0.0000 -172865.8829 14798.2706 281.1919 0.0000 0.0000 -154077.0215 0.0000 -154077.0215 -154077.0215 0.0000 13218.2542 -4906.0171 534946.2959 13218.2542 -4906.0171
ENERGY: 140 309.4870 708.8779 2913.8026 0.0000 -174236.5517 14731.4881 326.6359 0.0000 0.0000 -155246.2603 0.0000 -155246.2603 -155246.2603 0.0000 12971.5384 -5303.2162 534946.2959 12971.5384 -5303.2162
ENERGY: 160 264.9584 683.0333 2923.1579 0.0000 -176273.6672 14757.2371 382.8270 0.0000 0.0000 -157262.4536 0.0000 -157262.4536 -157262.4536 0.0000 12741.1711 -5741.6982 534946.2959 12741.1711 -5741.6982
ENERGY: 180 269.0756 744.0919 2928.5663 0.0000 -178994.0572 15023.2888 473.2319 0.0000 0.0000 -159555.8026 0.0000 -159555.8026 -159555.8026 0.0000 12521.6762 -6222.8418 534946.2959 12521.6762 -6222.8418
ENERGY: 200 238.7104 694.1123 2941.3508 0.0000 -181555.3386 15586.8365 546.2487 0.0000 0.0000 -161548.0800 0.0000 -161548.0800 -161548.0800 0.0000 12582.6338 -6430.0578 534946.2959 12582.6338 -6430.0578
TCL: Setting parameter constraintScaling to 2.5
TCL: Minimizing for 100 steps
ETITLE: TS BOND ANGLE DIHED IMPRP ELECT VDW BOUNDARY MISC KINETIC TOTAL TEMP POTENTIAL TOTAL3 TEMPAVG PRESSURE GPRESSURE VOLUME PRESSAVG GPRESSAVG
ENERGY: 200 238.7104 694.1123 2941.3508 0.0000 -181555.3386 15586.8365 273.1244 0.0000 0.0000 -161821.2044 0.0000 -161821.2044 -161821.2044 0.0000 13229.5190 -25660.7879 534946.2959 13229.5190 -25660.7879
ENERGY: 220 251.1295 680.1147 2933.0287 0.0000 -182082.9393 15470.5326 338.7106 0.0000 0.0000 -162409.4232 0.0000 -162409.4232 -162409.4232 0.0000 12967.3587 -6100.9398 534946.2959 12967.3587 -6100.9398
ENERGY: 240 139.0287 665.2854 2928.5705 0.0000 -182461.2107 15493.7432 343.6576 0.0000 0.0000 -162890.9253 0.0000 -162890.9253 -162890.9253 0.0000 13033.8305 -6113.5075 534946.2959 13033.8305 -6113.5075
ENERGY: 260 224.8864 700.9996 2922.5351 0.0000 -183731.3590 15753.4799 378.4231 0.0000 0.0000 -163751.0350 0.0000 -163751.0350 -163751.0350 0.0000 13014.6850 -6241.7377 534946.2959 13014.6850 -6241.7377
ENERGY: 280 128.8070 694.5493 2917.7140 0.0000 -185294.6627 16184.0916 446.9370 0.0000 0.0000 -164922.5637 0.0000 -164922.5637 -164922.5637 0.0000 13138.3578 -6333.2625 534946.2959 13138.3578 -6333.2625
ENERGY: 300 196.1811 659.0057 2920.8028 0.0000 -186570.2237 16637.8930 514.8274 0.0000 0.0000 -165641.5136 0.0000 -165641.5136 -165641.5136 0.0000 13238.2926 -6362.1385 534946.2959 13238.2926 -6362.1385
TCL: Setting parameter constraintScaling to 1.25
TCL: Minimizing for 100 steps
ETITLE: TS BOND ANGLE DIHED IMPRP ELECT VDW BOUNDARY MISC KINETIC TOTAL TEMP POTENTIAL TOTAL3 TEMPAVG PRESSURE GPRESSURE VOLUME PRESSAVG GPRESSAVG
ENERGY: 300 196.1811 659.0057 2920.8028 0.0000 -186570.2237 16637.8930 257.4137 0.0000 0.0000 -165898.9273 0.0000 -165898.9273 -165898.9273 0.0000 13700.9556 -26427.8538 534946.2959 13700.9556 -26427.8538
ENERGY: 320 327.5135 704.9660 2904.5597 0.0000 -187391.3317 16850.6960 293.9344 0.0000 0.0000 -166309.6620 0.0000 -166309.6620 -166309.6620 0.0000 13717.0186 -5983.2000 534946.2959 13717.0186 -5983.2000
ENERGY: 340 296.7043 703.1828 2915.1344 0.0000 -187975.1150 17035.0954 318.3271 0.0000 0.0000 -166706.6710 0.0000 -166706.6710 -166706.6710 0.0000 13770.4591 -5993.8064 534946.2959 13770.4591 -5993.8064
ENERGY: 360 206.0751 678.8972 2917.3060 0.0000 -188879.7967 17361.9886 350.0371 0.0000 0.0000 -167365.4926 0.0000 -167365.4926 -167365.4926 0.0000 13831.1491 -6003.1177 534946.2959 13831.1491 -6003.1177
ENERGY: 380 150.4149 645.9401 2900.0141 0.0000 -189106.1317 17423.3477 345.9354 0.0000 0.0000 -167640.4795 0.0000 -167640.4795 -167640.4795 0.0000 13923.9891 -5963.5975 534946.2959 13923.9891 -5963.5975
ENERGY: 400 214.1955 691.3206 2906.6411 0.0000 -190142.1382 17742.4910 370.3341 0.0000 0.0000 -168217.1560 0.0000 -168217.1560 -168217.1560 0.0000 13990.0357 -6013.0975 534946.2959 13990.0357 -6013.0975
TCL: Setting parameter constraintScaling to 0.625
TCL: Minimizing for 100 steps
ETITLE: TS BOND ANGLE DIHED IMPRP ELECT VDW BOUNDARY MISC KINETIC TOTAL TEMP POTENTIAL TOTAL3 TEMPAVG PRESSURE GPRESSURE VOLUME PRESSAVG GPRESSAVG
ENERGY: 400 214.1955 691.3206 2906.6411 0.0000 -190142.1382 17742.4910 185.1670 0.0000 0.0000 -168402.3230 0.0000 -168402.3230 -168402.3230 0.0000 14278.1818 -26689.4965 534946.2959 14278.1818 -26689.4965
ENERGY: 420 136.4424 635.3154 2896.9950 0.0000 -190306.3745 17794.2398 191.2785 0.0000 0.0000 -168652.1034 0.0000 -168652.1034 -168652.1034 0.0000 14323.6576 -5702.1410 534946.2959 14323.6576 -5702.1410
ENERGY: 440 191.1013 673.4068 2894.7373 0.0000 -191472.1936 18218.5844 242.0057 0.0000 0.0000 -169252.3582 0.0000 -169252.3582 -169252.3582 0.0000 14406.5174 -5735.1207 534946.2959 14406.5174 -5735.1207
ENERGY: 460 151.4379 648.3695 2889.3649 0.0000 -192085.3210 18433.3607 263.7807 0.0000 0.0000 -169699.0072 0.0000 -169699.0072 -169699.0072 0.0000 14473.6090 -5745.0213 534946.2959 14473.6090 -5745.0213
ENERGY: 480 169.3380 691.2885 2895.0714 0.0000 -192393.2747 18514.5687 266.7354 0.0000 0.0000 -169856.2727 0.0000 -169856.2727 -169856.2727 0.0000 14505.5300 -5733.1113 534946.2959 14505.5300 -5733.1113
ENERGY: 500 175.1151 708.8067 2895.9751 0.0000 -193133.3343 18808.1168 271.3775 0.0000 0.0000 -170273.9431 0.0000 -170273.9431 -170273.9431 0.0000 14698.5705 -5656.0692 534946.2959 14698.5705 -5656.0692
TCL: Setting parameter constraintScaling to 0.3125
TCL: Minimizing for 100 steps
ETITLE: TS BOND ANGLE DIHED IMPRP ELECT VDW BOUNDARY MISC KINETIC TOTAL TEMP POTENTIAL TOTAL3 TEMPAVG PRESSURE GPRESSURE VOLUME PRESSAVG GPRESSAVG
ENERGY: 500 175.1151 708.8067 2895.9751 0.0000 -193133.3343 18808.1168 135.6887 0.0000 0.0000 -170409.6319 0.0000 -170409.6319 -170409.6319 0.0000 14883.5520 -26792.6326 534946.2959 14883.5520 -26792.6326
ENERGY: 520 304.3207 694.8067 2883.2965 0.0000 -193568.0161 18970.4838 148.1193 0.0000 0.0000 -170566.9891 0.0000 -170566.9891 -170566.9891 0.0000 14873.8020 -5506.4002 534946.2959 14873.8020 -5506.4002
ENERGY: 540 360.7248 755.5894 2889.8280 0.0000 -194550.1863 19402.1318 187.7333 0.0000 0.0000 -170954.1790 0.0000 -170954.1790 -170954.1790 0.0000 14956.4345 -5502.3289 534946.2959 14956.4345 -5502.3289
ENERGY: 560 154.9704 651.6171 2877.2958 0.0000 -194372.8034 19263.5422 173.3373 0.0000 0.0000 -171252.0406 0.0000 -171252.0406 -171252.0406 0.0000 14983.9423 -5486.3501 534946.2959 14983.9423 -5486.3501
ENERGY: 580 154.8410 685.2196 2874.9842 0.0000 -194758.7172 19383.4143 175.7998 0.0000 0.0000 -171484.4583 0.0000 -171484.4583 -171484.4583 0.0000 15063.9655 -5456.5030 534946.2959 15063.9655 -5456.5030
ENERGY: 600 193.1290 689.8892 2884.3977 0.0000 -195508.3625 19681.3265 189.4274 0.0000 0.0000 -171870.1927 0.0000 -171870.1927 -171870.1927 0.0000 15202.7808 -5409.2995 534946.2959 15202.7808 -5409.2995
TCL: Setting parameter constraintScaling to 0.15625
TCL: Minimizing for 100 steps
ETITLE: TS BOND ANGLE DIHED IMPRP ELECT VDW BOUNDARY MISC KINETIC TOTAL TEMP POTENTIAL TOTAL3 TEMPAVG PRESSURE GPRESSURE VOLUME PRESSAVG GPRESSAVG
ENERGY: 600 193.1290 689.8892 2884.3977 0.0000 -195508.3625 19681.3265 94.7137 0.0000 0.0000 -171964.9064 0.0000 -171964.9064 -171964.9064 0.0000 15315.7731 -26913.5338 534946.2959 15315.7731 -26913.5338
ENERGY: 620 155.9878 651.0308 2867.6113 0.0000 -195805.9068 19785.5300 100.2963 0.0000 0.0000 -172245.4507 0.0000 -172245.4507 -172245.4507 0.0000 15323.3904 -5306.2296 534946.2959 15323.3904 -5306.2296
ENERGY: 640 158.0063 659.0456 2867.6933 0.0000 -196087.0496 19900.1826 106.5363 0.0000 0.0000 -172395.5855 0.0000 -172395.5855 -172395.5855 0.0000 15372.6802 -5299.3709 534946.2959 15372.6802 -5299.3709
ENERGY: 660 164.9783 664.4005 2866.7283 0.0000 -196684.4687 20139.4627 117.9697 0.0000 0.0000 -172730.9291 0.0000 -172730.9291 -172730.9291 0.0000 15439.7711 -5292.3613 534946.2959 15439.7711 -5292.3613
ENERGY: 680 170.3964 666.1027 2861.4102 0.0000 -196946.0951 20209.1313 117.0965 0.0000 0.0000 -172921.9580 0.0000 -172921.9580 -172921.9580 0.0000 15482.8173 -5277.0720 534946.2959 15482.8173 -5277.0720
ENERGY: 700 177.7914 697.5218 2880.2491 0.0000 -198046.4246 20682.3896 129.3024 0.0000 0.0000 -173479.1702 0.0000 -173479.1702 -173479.1702 0.0000 15745.8057 -5153.3071 534946.2959 15745.8057 -5153.3071
TCL: Setting parameter constraintScaling to 0.078125
TCL: Minimizing for 100 steps
ETITLE: TS BOND ANGLE DIHED IMPRP ELECT VDW BOUNDARY MISC KINETIC TOTAL TEMP POTENTIAL TOTAL3 TEMPAVG PRESSURE GPRESSURE VOLUME PRESSAVG GPRESSAVG
ENERGY: 700 177.7914 697.5218 2880.2491 0.0000 -198046.4246 20682.3896 64.6512 0.0000 0.0000 -173543.8215 0.0000 -173543.8215 -173543.8215 0.0000 15814.6924 -27022.0546 534946.2959 15814.6924 -27022.0546
ENERGY: 720 165.8954 659.7841 2850.6675 0.0000 -198428.0869 20781.6751 69.1236 0.0000 0.0000 -173900.9411 0.0000 -173900.9411 -173900.9411 0.0000 15823.2042 -5115.1744 534946.2959 15823.2042 -5115.1744
ENERGY: 740 169.0426 664.3225 2852.7060 0.0000 -198681.8966 20902.1435 73.1430 0.0000 0.0000 -174020.5390 0.0000 -174020.5390 -174020.5390 0.0000 15860.2052 -5103.4926 534946.2959 15860.2052 -5103.4926
ENERGY: 760 168.8557 672.6417 2850.4755 0.0000 -199149.3244 21078.8175 77.8979 0.0000 0.0000 -174300.6361 0.0000 -174300.6361 -174300.6361 0.0000 15937.5825 -5079.5877 534946.2959 15937.5825 -5079.5877
ENERGY: 780 165.4933 668.0704 2844.7506 0.0000 -199245.3969 21084.2481 77.0735 0.0000 0.0000 -174405.7609 0.0000 -174405.7609 -174405.7609 0.0000 15949.6822 -5075.5421 534946.2959 15949.6822 -5075.5421
ENERGY: 800 180.6063 683.3330 2858.1191 0.0000 -199770.0205 21297.8208 79.3681 0.0000 0.0000 -174670.7732 0.0000 -174670.7732 -174670.7732 0.0000 16103.0743 -5000.3300 534946.2959 16103.0743 -5000.3300
TCL: Setting parameter constraintScaling to 0.0390625
TCL: Minimizing for 100 steps
ETITLE: TS BOND ANGLE DIHED IMPRP ELECT VDW BOUNDARY MISC KINETIC TOTAL TEMP POTENTIAL TOTAL3 TEMPAVG PRESSURE GPRESSURE VOLUME PRESSAVG GPRESSAVG
ENERGY: 800 180.6063 683.3330 2858.1191 0.0000 -199770.0205 21297.8208 39.6840 0.0000 0.0000 -174710.4573 0.0000 -174710.4573 -174710.4573 0.0000 16141.9959 -27107.9951 534946.2959 16141.9959 -27107.9951
ENERGY: 820 161.6511 654.6641 2840.5224 0.0000 -200147.4006 21405.4426 42.2093 0.0000 0.0000 -175042.9112 0.0000 -175042.9112 -175042.9112 0.0000 16159.3867 -4985.0197 534946.2959 16159.3867 -4985.0197
ENERGY: 840 194.8996 681.4744 2844.0384 0.0000 -200558.5158 21590.4722 45.1311 0.0000 0.0000 -175202.5000 0.0000 -175202.5000 -175202.5000 0.0000 16215.1252 -4973.5855 534946.2959 16215.1252 -4973.5855
ENERGY: 860 194.2313 683.6116 2832.4539 0.0000 -201231.9426 21844.7302 48.3362 0.0000 0.0000 -175628.5793 0.0000 -175628.5793 -175628.5793 0.0000 16339.5666 -4918.6405 534946.2959 16339.5666 -4918.6405
ENERGY: 880 168.9497 663.9314 2834.0072 0.0000 -201334.2211 21865.9589 48.5852 0.0000 0.0000 -175752.7888 0.0000 -175752.7888 -175752.7888 0.0000 16358.0209 -4918.8993 534946.2959 16358.0209 -4918.8993
ENERGY: 900 164.1956 657.9063 2832.0471 0.0000 -201724.4418 22018.4921 49.2399 0.0000 0.0000 -176002.5609 0.0000 -176002.5609 -176002.5609 0.0000 16480.3922 -4858.7415 534946.2959 16480.3922 -4858.7415
TCL: Setting parameter constraintScaling to 0.01953125
TCL: Minimizing for 100 steps
ETITLE: TS BOND ANGLE DIHED IMPRP ELECT VDW BOUNDARY MISC KINETIC TOTAL TEMP POTENTIAL TOTAL3 TEMPAVG PRESSURE GPRESSURE VOLUME PRESSAVG GPRESSAVG
ENERGY: 900 164.1956 657.9063 2832.0471 0.0000 -201724.4418 22018.4921 24.6199 0.0000 0.0000 -176027.1808 0.0000 -176027.1808 -176027.1808 0.0000 16502.4693 -27210.4286 534946.2959 16502.4693 -27210.4286
ENERGY: 920 334.1763 701.1242 2827.5568 0.0000 -202002.2221 22128.5829 25.7542 0.0000 0.0000 -175985.0277 0.0000 -175985.0277 -175985.0277 0.0000 16498.8206 -4875.1056 534946.2959 16498.8206 -4875.1056
ENERGY: 940 181.6845 661.6971 2827.3292 0.0000 -202236.5256 22232.0780 26.4672 0.0000 0.0000 -176307.2697 0.0000 -176307.2697 -176307.2697 0.0000 16550.7979 -4830.2311 534946.2959 16550.7979 -4830.2311
ENERGY: 960 177.3672 662.1037 2822.1425 0.0000 -202658.1758 22385.9564 27.4410 0.0000 0.0000 -176583.1649 0.0000 -176583.1649 -176583.1649 0.0000 16650.7917 -4784.9778 534946.2959 16650.7917 -4784.9778
ENERGY: 980 175.4255 664.7020 2828.4573 0.0000 -203095.6057 22575.5408 28.1165 0.0000 0.0000 -176823.3637 0.0000 -176823.3637 -176823.3637 0.0000 16765.6838 -4722.0087 534946.2959 16765.6838 -4722.0087
ENERGY: 1000 212.4141 669.9167 2827.5147 0.0000 -204080.7700 23061.4200 30.7511 0.0000 0.0000 -177278.7534 0.0000 -177278.7534 -177278.7534 0.0000 17017.1617 -4587.7858 534946.2959 17017.1617 -4587.7858
TCL: Setting parameter constraintScaling to 0
TCL: Minimizing for 5000 steps
ETITLE: TS BOND ANGLE DIHED IMPRP ELECT VDW BOUNDARY MISC KINETIC TOTAL TEMP POTENTIAL TOTAL3 TEMPAVG PRESSURE GPRESSURE VOLUME PRESSAVG GPRESSAVG
ENERGY: 1000 212.4141 669.9167 2827.5147 0.0000 -204080.7700 23061.4200 0.0000 0.0000 0.0000 -177309.5045 0.0000 -177309.5045 -177309.5045 0.0000 17042.7235 -27238.2212 534946.2959 17042.7235 -27238.2212
ENERGY: 2000 170.2021 665.7765 2801.4645 0.0000 -214269.6194 27498.3335 0.0000 0.0000 0.0000 -183133.8429 0.0000 -183133.8429 -183133.8429 0.0000 19367.6590 -3385.7509 534946.2959 19367.6590 -3385.7509
ENERGY: 3000 169.0946 669.2291 2794.1272 0.0000 -217332.9121 28819.0418 0.0000 0.0000 0.0000 -184881.4194 0.0000 -184881.4194 -184881.4194 0.0000 20064.6732 -2730.6026 534946.2959 20064.6732 -2730.6026
ENERGY: 4000 166.9087 663.5283 2785.8373 0.0000 -218644.9985 29312.9384 0.0000 0.0000 0.0000 -185715.7859 0.0000 -185715.7859 -185715.7859 0.0000 20327.4582 -2591.0493 534946.2959 20327.4582 -2591.0493
ENERGY: 5000 217.4652 669.5036 2779.0072 0.0000 -219425.6612 29623.3014 0.0000 0.0000 0.0000 -186136.3839 0.0000 -186136.3839 -186136.3839 0.0000 20492.8528 -2510.9709 534946.2959 20492.8528 -2510.9709
ENERGY: 6000 165.6293 658.0337 2783.8566 0.0000 -219768.7474 29715.0323 0.0000 0.0000 0.0000 -186446.1954 0.0000 -186446.1954 -186446.1954 0.0000 20541.3638 -2494.8139 534946.2959 20541.3638 -2494.8139
