Info: SIMULATION PARAMETERS:
Info: TIMESTEP               1
Info: NUMBER OF STEPS        0
Info: STEPS PER CYCLE        10
Info: PERIODIC CELL BASIS 1  72.449 0 0
Info: PERIODIC CELL BASIS 2  0 93.247 0
Info: PERIODIC CELL BASIS 3  0 0 79.185
Info: PERIODIC CELL CENTER   -0.248 -0.156 -0.047
Info: WRAPPING WATERS AROUND PERIODIC BOUNDARIES ON OUTPUT.
Info: WRAPPING ALL CLUSTERS AROUND PERIODIC BOUNDARIES ON OUTPUT.
Info: FIRST LDB TIMESTEP     50
Info: LAST LDB TIMESTEP     -1
Info: HOM BACKGROUND SCALING 1
Info: PME BACKGROUND SCALING 1
Info: MIN ATOMS PER PATCH    40
Info: VELOCITY FILE          ../replicas/rep125/equilibration/eq1.vel
Info: CENTER OF MASS MOVING INITIALLY? NO
Info: DIELECTRIC             1
Info: EXCLUDE                SCALED ONE-FOUR
Info: 1-4 ELECTROSTATICS SCALED BY 0.833333
Info: MODIFIED 1-4 VDW PARAMETERS WILL BE USED
Info: DCD FILENAME           ../replicas/rep125/equilibration/eq2.dcd
Info: DCD FREQUENCY          5000
Info: DCD FIRST STEP         5000
Info: DCD FILE WILL CONTAIN UNIT CELL DATA
Info: XST FILENAME           ../replicas/rep125/equilibration/eq2.xst
Info: XST FREQUENCY          5000
Info: NO VELOCITY DCD OUTPUT
Info: NO FORCE DCD OUTPUT
Info: OUTPUT FILENAME        ../replicas/rep125/equilibration/eq2
Info: RESTART FILENAME       ../replicas/rep125/equilibration/eq2.restart
Info: RESTART FREQUENCY      5000
Info: BINARY RESTART FILES WILL BE USED
Info: SWITCHING ACTIVE
Info: SWITCHING ON           10
Info: SWITCHING OFF          12
Info: PAIRLIST DISTANCE      13.5
Info: PAIRLIST SHRINK RATE   0.01
Info: PAIRLIST GROW RATE     0.01
Info: PAIRLIST TRIGGER       0.3
Info: PAIRLISTS PER CYCLE    2
Info: PAIRLISTS ENABLED
Info: MARGIN                 0.48
Info: HYDROGEN GROUP CUTOFF  2.5
Info: PATCH DIMENSION        16.48
Info: ENERGY OUTPUT STEPS    500
Info: CROSSTERM ENERGY INCLUDED IN DIHEDRAL
Info: TIMING OUTPUT STEPS    5000
Info: PRESSURE OUTPUT STEPS  500
Info: HARMONIC CONSTRAINTS ACTIVE
Info: HARMONIC CONS EXP      2
Info: HARMONIC CONS SCALING  10
Info: LANGEVIN DYNAMICS ACTIVE
Info: LANGEVIN TEMPERATURE   300
Info: LANGEVIN USING BBK INTEGRATOR
Info: LANGEVIN DAMPING COEFFICIENT IS 5 INVERSE PS
Info: LANGEVIN DYNAMICS NOT APPLIED TO HYDROGENS
Info: BERENDSEN PRESSURE COUPLING ACTIVE
Info:     TARGET PRESSURE IS 1 BAR
Info:     COMPRESSIBILITY ESTIMATE IS 4.57e-05 BAR^(-1)
Info:     RELAXATION TIME IS 100 FS
Info:     APPLIED EVERY 2 STEPS
Info:     PRESSURE CONTROL IS GROUP-BASED
Info:       CELL FLUCTUATION IS ISOTROPIC
Info: PARTICLE MESH EWALD (PME) ACTIVE
Info: PME TOLERANCE               1e-06
Info: PME EWALD COEFFICIENT       0.257952
Info: PME INTERPOLATION ORDER     4
Info: PME GRID DIMENSIONS         80 96 80
Info: PME MAXIMUM GRID SPACING    1
Info: FULL ELECTROSTATIC EVALUATION FREQUENCY      2
Info: USING VERLET I (r-RESPA) MTS SCHEME.
Info: C1 SPLITTING OF LONG RANGE ELECTROSTATICS
Info: PLACING ATOMS IN PATCHES BY HYDROGEN GROUPS
Info: RIGID BONDS TO HYDROGEN : WATER
Info:         ERROR TOLERANCE : 1e-05
Info:          MAX ITERATIONS : 100
Info: RIGID WATER USING SETTLE ALGORITHM
Info: RANDOM NUMBER SEED     1503697683
Info: USE HYDROGEN BONDS?    NO
Info: Using AMBER format force field!
Info: AMBER PARM FILE        ../build/complex.top
Info: COORDINATE PDB         ../replicas/rep125/equilibration/eq1.coor
Info: Exclusions in PARM file will be ignored!
Info: SCNB (VDW SCALING)     2
Info: USING ARITHMETIC MEAN TO COMBINE L-J SIGMA PARAMETERS
Info: SUMMARY OF PARAMETERS:
Info: 71 BONDS
Info: 145 ANGLES
Info: 76 DIHEDRAL
Info: 0 IMPROPER
Info: 0 CROSSTERM
Info: 0 VDW
Info: 190 VDW_PAIRS
Info: 0 NBTHOLE_PAIRS
Info: STRUCTURE SUMMARY:
Info: 49394 ATOMS
Info: 49448 BONDS
Info: 8698 ANGLES
Info: 18780 DIHEDRALS
Info: 0 IMPROPERS
Info: 0 CROSSTERMS
Info: 0 EXCLUSIONS
Info: 2336 CONSTRAINTS
Info: 44667 RIGID BONDS
Info: 103515 DEGREES OF FREEDOM
Info: 17225 HYDROGEN GROUPS
Info: 4 ATOMS IN LARGEST HYDROGEN GROUP
Info: 17225 MIGRATION GROUPS
Info: 4 ATOMS IN LARGEST MIGRATION GROUP
Info: TOTAL MASS = 301478 amu
Info: TOTAL CHARGE = 1.00115e-05 e
Info: MASS DENSITY = 0.935846 g/cm^3
Info: ATOM DENSITY = 0.0923345 atoms/A^3
Info: ADDED 70656 IMPLICIT EXCLUSIONS
Info: NONBONDED TABLE R-SQUARED SPACING: 0.0625
Info: NONBONDED TABLE SIZE: 769 POINTS
Info: REMOVING COM VELOCITY -0.00316094 0.0189077 -0.00572035
TCL: Running for 5000 steps
ETITLE: TS BOND ANGLE DIHED IMPRP ELECT VDW BOUNDARY MISC KINETIC TOTAL TEMP POTENTIAL TOTAL3 TEMPAVG PRESSURE GPRESSURE VOLUME PRESSAVG GPRESSAVG
ENERGY: 0 387.6456 1200.2394 2919.8065 0.0000 -212627.3224 29549.7501 0.0000 0.0000 9976.2842 -168593.5967 96.9965 -178569.8809 -168583.9893 96.9965 -2342.0543 -2445.7786 534946.2959 -2342.0543 -2445.7786
ENERGY: 1000 1211.8197 1912.1584 3101.9794 0.0000 -193840.5664 26637.8692 780.1720 0.0000 23962.2826 -136234.2849 232.9782 -160196.5675 -136212.2684 217.6302 -51.8184 -29.6552 521820.9459 -16.6998 -16.7095
ENERGY: 2000 1389.4567 2171.9604 3128.7873 0.0000 -184225.5992 23206.2525 812.9767 0.0000 27922.9627 -125593.2029 271.4867 -153516.1655 -125547.4345 263.6253 2.0034 -10.7151 513884.2850 -40.7349 -40.3172
ENERGY: 3000 1467.6136 2218.6485 3107.2252 0.0000 -179003.7595 21426.3431 827.8951 0.0000 29724.9644 -120231.0696 289.0071 -149956.0341 -120177.0651 284.5036 -80.9319 7.2163 508777.3095 -20.4727 -20.7324
ENERGY: 4000 1527.0513 2211.4585 3129.0887 0.0000 -176739.4752 20674.9695 827.4630 0.0000 30131.6968 -118237.7473 292.9616 -148369.4441 -118192.1373 292.6023 -54.2128 -22.3402 505517.2254 -27.3573 -27.3295
ENERGY: 5000 1562.6709 2280.0053 3163.2736 0.0000 -176146.5300 20393.5868 795.9819 0.0000 30593.6448 -117357.3667 297.4530 -147951.0116 -117312.2764 297.3203 -33.3704 -13.0607 503355.1582 5.7940 5.5280
TCL: Setting parameter constraintScaling to 5.0
TCL: Running for 5000 steps
ETITLE: TS BOND ANGLE DIHED IMPRP ELECT VDW BOUNDARY MISC KINETIC TOTAL TEMP POTENTIAL TOTAL3 TEMPAVG PRESSURE GPRESSURE VOLUME PRESSAVG GPRESSAVG
ENERGY: 5000 1562.6709 2280.0053 3163.2736 0.0000 -176146.5300 20393.5868 397.9909 0.0000 30591.6009 -117757.4015 297.4331 -148349.0025 -117714.2862 297.4331 -78.7457 -54.0639 503355.1582 -78.7457 -54.0639
ENERGY: 6000 1604.3698 2307.9075 3181.7600 0.0000 -175619.0181 20239.0540 687.5649 0.0000 30768.5258 -116829.8362 299.1533 -147598.3620 -116784.0890 299.7813 -83.9382 14.0698 502430.3406 -8.8453 -8.7777
ENERGY: 7000 1608.0793 2316.1121 3135.5497 0.0000 -175884.3899 20291.2648 664.1735 0.0000 30936.5408 -116932.6697 300.7869 -147869.2104 -116886.6028 299.6173 -182.6347 -71.6986 500533.7189 -21.2389 -21.1178
ENERGY: 8000 1622.3911 2283.8500 3145.1918 0.0000 -175834.0514 20133.6527 649.5204 0.0000 30883.1811 -117116.2643 300.2681 -147999.4453 -117069.2862 299.6060 -1.8786 19.0804 500125.1936 -3.2840 -2.7706
ENERGY: 9000 1608.6051 2304.9741 3182.6262 0.0000 -175583.8273 20055.8069 631.1557 0.0000 30884.7244 -116915.9350 300.2831 -147800.6594 -116874.4652 299.5524 27.1234 3.8555 500989.1253 -10.1744 -10.3672
ENERGY: 10000 1571.4071 2352.2482 3158.4838 0.0000 -175543.8854 20064.8003 657.0313 0.0000 30906.8719 -116833.0428 300.4984 -147739.9147 -116797.2616 299.8209 -103.0856 -40.0288 500549.3262 0.1491 0.0561
TCL: Setting parameter constraintScaling to 2.5
TCL: Running for 5000 steps
ETITLE: TS BOND ANGLE DIHED IMPRP ELECT VDW BOUNDARY MISC KINETIC TOTAL TEMP POTENTIAL TOTAL3 TEMPAVG PRESSURE GPRESSURE VOLUME PRESSAVG GPRESSAVG
ENERGY: 10000 1571.4071 2352.2482 3158.4838 0.0000 -175543.8854 20064.8003 328.5156 0.0000 30904.8231 -117163.6071 300.4785 -148068.4303 -117122.4083 300.4785 -143.3961 -78.7617 500549.3262 -143.3961 -78.7617
ENERGY: 11000 1623.9651 2326.6291 3173.5700 0.0000 -176427.9031 20410.9165 483.8806 0.0000 30966.5946 -117442.3472 301.0791 -148408.9418 -117393.1916 299.2356 34.1792 8.0861 499399.4959 1.3118 0.7642
ENERGY: 12000 1630.4887 2311.7613 3181.9795 0.0000 -175956.4055 20151.6493 501.5585 0.0000 30706.3415 -117472.6267 298.5487 -148178.9682 -117422.2249 298.4968 22.8559 39.9065 499425.3102 2.9626 2.8585
ENERGY: 13000 1676.4858 2412.4659 3166.3059 0.0000 -175443.6292 19848.0253 506.3026 0.0000 30601.6054 -117232.4382 297.5304 -147834.0436 -117200.9276 299.0896 95.8407 15.4870 500258.6853 4.7081 4.2040
ENERGY: 14000 1603.4530 2346.5025 3153.8854 0.0000 -175575.7641 19948.7243 491.3423 0.0000 30788.8782 -117242.9784 299.3512 -148031.8566 -117192.4530 299.0359 -164.1213 -24.5495 498996.9168 -16.6291 -16.4672
ENERGY: 15000 1571.9506 2369.3050 3166.1295 0.0000 -175798.4898 20220.1559 502.7636 0.0000 30850.9021 -117117.2831 299.9542 -147968.1853 -117068.1614 299.8657 -44.7573 -38.9572 498364.3661 -0.3730 -0.3900
TCL: Setting parameter constraintScaling to 1.25
TCL: Running for 5000 steps
ETITLE: TS BOND ANGLE DIHED IMPRP ELECT VDW BOUNDARY MISC KINETIC TOTAL TEMP POTENTIAL TOTAL3 TEMPAVG PRESSURE GPRESSURE VOLUME PRESSAVG GPRESSAVG
ENERGY: 15000 1571.9506 2369.3050 3166.1295 0.0000 -175798.4898 20220.1559 251.3818 0.0000 30848.8614 -117370.7057 299.9344 -148219.5671 -117325.3206 299.9344 25.5165 33.3114 498364.3661 25.5165 33.3114
ENERGY: 16000 1633.2133 2446.7698 3212.3995 0.0000 -176274.4349 20324.5401 435.7715 0.0000 30733.1890 -117488.5517 298.8097 -148221.7407 -117447.4917 298.9758 9.1038 31.8916 499157.3322 -1.9089 -2.0600
ENERGY: 17000 1607.6337 2382.9139 3191.0295 0.0000 -175488.0835 19914.0594 382.9463 0.0000 30906.5427 -117102.9580 300.4952 -148009.5007 -117056.4659 299.3885 9.1799 37.4375 500137.0454 -3.6385 -3.7734
ENERGY: 18000 1590.6327 2440.6992 3180.3243 0.0000 -175321.9836 19712.1655 388.7784 0.0000 30966.4819 -117042.9015 301.0780 -148009.3835 -116987.0298 299.6587 23.2799 52.1184 499346.5051 -1.0373 -0.6206
ENERGY: 19000 1594.6209 2435.8382 3190.4592 0.0000 -175913.8328 19973.7646 408.2477 0.0000 31064.9710 -117245.9313 302.0355 -148310.9023 -117190.8242 299.9070 -32.4814 -66.6986 499651.7586 -0.4459 -0.3398
ENERGY: 20000 1640.4841 2375.9617 3190.0767 0.0000 -176102.7596 20217.6211 404.2297 0.0000 30933.5850 -117340.8012 300.7581 -148274.3862 -117295.5459 299.9753 -55.7910 0.2353 498524.9822 -4.9121 -4.7372
TCL: Setting parameter constraintScaling to 0.625
TCL: Running for 5000 steps
ETITLE: TS BOND ANGLE DIHED IMPRP ELECT VDW BOUNDARY MISC KINETIC TOTAL TEMP POTENTIAL TOTAL3 TEMPAVG PRESSURE GPRESSURE VOLUME PRESSAVG GPRESSAVG
ENERGY: 20000 1640.4841 2375.9617 3190.0767 0.0000 -176102.7596 20217.6211 202.1149 0.0000 30931.4984 -117545.0027 300.7378 -148476.5011 -117500.2686 300.7378 -96.2638 -37.3508 498524.9822 -96.2638 -37.3508
ENERGY: 21000 1654.8520 2362.1147 3180.1418 0.0000 -175502.9427 19874.4076 290.4832 0.0000 30758.4720 -117382.4714 299.0555 -148140.9434 -117348.5574 298.5383 -101.6797 -100.8075 499350.1859 4.8216 4.4600
ENERGY: 22000 1626.5215 2397.5582 3236.8427 0.0000 -175854.5367 20162.3413 303.8675 0.0000 30558.6476 -117568.7579 297.1127 -148127.4055 -117531.2464 298.2268 -31.5592 -24.4325 497851.8811 -3.8752 -3.5237
ENERGY: 23000 1677.6965 2411.7092 3182.0142 0.0000 -175623.1441 20025.8766 326.5095 0.0000 30615.1074 -117384.2307 297.6617 -147999.3381 -117342.9929 299.3783 -61.3039 -43.9564 499991.1137 13.6011 12.9879
ENERGY: 24000 1695.2588 2427.0381 3179.0972 0.0000 -175597.6352 20271.9771 326.5924 0.0000 30779.5000 -116918.1717 299.2600 -147697.6717 -116875.8039 300.4396 -18.5085 18.1601 498103.6993 -7.5639 -7.2074
ENERGY: 25000 1573.5341 2435.0304 3173.5613 0.0000 -175818.0422 20193.6715 305.2926 0.0000 30821.8579 -117315.0944 299.6718 -148136.9523 -117263.3675 299.5159 -28.0593 7.4598 498886.4328 -3.5441 -3.6734
TCL: Setting parameter constraintScaling to 0.3125
TCL: Running for 5000 steps
ETITLE: TS BOND ANGLE DIHED IMPRP ELECT VDW BOUNDARY MISC KINETIC TOTAL TEMP POTENTIAL TOTAL3 TEMPAVG PRESSURE GPRESSURE VOLUME PRESSAVG GPRESSAVG
ENERGY: 25000 1573.5341 2435.0304 3173.5613 0.0000 -175818.0422 20193.6715 152.6463 0.0000 30819.7851 -117469.8135 299.6517 -148289.5986 -117424.4748 299.6517 -2.1182 31.7466 498886.4328 -2.1182 31.7466
ENERGY: 26000 1665.0514 2379.4144 3207.7504 0.0000 -175911.1911 20310.1273 227.7483 0.0000 30919.6447 -117201.4545 300.6226 -148121.0993 -117169.8133 300.0919 -4.8088 58.1444 498467.1584 -0.9607 -0.6112
ENERGY: 27000 1656.2772 2437.6233 3171.4367 0.0000 -175821.1881 20053.7781 237.7910 0.0000 30811.0978 -117453.1840 299.5672 -148264.2818 -117405.6705 300.4363 -55.9219 -42.6343 496935.5762 -13.1074 -12.8973
ENERGY: 28000 1668.5416 2434.1396 3192.7069 0.0000 -175467.0841 19890.9833 249.5079 0.0000 30892.9651 -117138.2397 300.3632 -148031.2048 -117082.5321 300.0465 -228.5096 -130.8312 498372.0403 7.2269 7.0937
ENERGY: 29000 1641.6133 2400.7005 3205.3026 0.0000 -175433.2702 19808.0449 260.7538 0.0000 30997.6409 -117119.2142 301.3809 -148116.8551 -117083.7909 300.9564 -94.9480 -139.4947 498325.0046 12.4476 12.5774
ENERGY: 30000 1615.1867 2349.4229 3181.6445 0.0000 -174731.5213 19858.0373 253.1069 0.0000 31004.1365 -116469.9865 301.4441 -147474.1230 -116428.3710 302.4979 -26.1825 53.7233 498905.8988 3.6858 3.8991
TCL: Setting parameter constraintScaling to 0.15625
TCL: Running for 5000 steps
ETITLE: TS BOND ANGLE DIHED IMPRP ELECT VDW BOUNDARY MISC KINETIC TOTAL TEMP POTENTIAL TOTAL3 TEMPAVG PRESSURE GPRESSURE VOLUME PRESSAVG GPRESSAVG
ENERGY: 30000 1615.1867 2349.4229 3181.6445 0.0000 -174731.5213 19858.0373 126.5535 0.0000 31002.0916 -116598.5849 301.4242 -147600.6765 -116554.0532 301.4242 -42.0931 36.5885 498905.8988 -42.0931 36.5885
ENERGY: 31000 1679.9492 2424.4150 3204.8347 0.0000 -175519.2982 20035.3957 182.6599 0.0000 30949.4753 -117042.5685 300.9126 -147992.0437 -117003.0405 301.8481 -57.7887 8.6948 498054.8370 0.3474 0.6762
ENERGY: 32000 1716.9132 2414.8602 3195.8401 0.0000 -176023.2252 20077.4929 204.0239 0.0000 31235.1156 -117178.9794 303.6898 -148414.0949 -117136.5828 299.8786 41.5253 -46.7188 498223.5058 -6.4434 -5.8416
ENERGY: 33000 1630.1083 2448.2874 3209.6640 0.0000 -175966.8590 20229.9413 184.3086 0.0000 30888.0970 -117376.4523 300.3158 -148264.5493 -117327.4820 300.1322 39.4923 18.5421 496730.8361 -11.6960 -11.4798
ENERGY: 34000 1642.4872 2415.0237 3200.3871 0.0000 -175847.7422 19998.0212 201.9892 0.0000 30815.0604 -117574.7734 299.6057 -148389.8337 -117534.0470 299.7132 -46.6337 -19.1500 496798.5056 -0.9039 -0.2221
ENERGY: 35000 1599.2293 2441.6919 3209.8932 0.0000 -176186.4763 20182.0044 189.8435 0.0000 30611.6191 -117952.1950 297.6277 -148563.8140 -117901.0974 298.8075 -39.6739 -1.4265 496216.5371 -7.3179 -7.6198
TCL: Setting parameter constraintScaling to 0.078125
TCL: Running for 5000 steps
ETITLE: TS BOND ANGLE DIHED IMPRP ELECT VDW BOUNDARY MISC KINETIC TOTAL TEMP POTENTIAL TOTAL3 TEMPAVG PRESSURE GPRESSURE VOLUME PRESSAVG GPRESSAVG
ENERGY: 35000 1599.2293 2441.6919 3209.8932 0.0000 -176186.4763 20182.0044 94.9217 0.0000 30609.5788 -118049.1569 297.6079 -148658.7358 -118007.9217 297.6079 -47.7272 -2.9712 496216.5371 -47.7272 -2.9712
ENERGY: 36000 1663.7712 2480.4115 3234.2072 0.0000 -175678.7900 19788.3299 153.1753 0.0000 30655.6906 -117703.2043 298.0562 -148358.8949 -117660.3631 299.3981 -81.7526 -35.5093 495580.3480 5.7426 6.1503
ENERGY: 37000 1647.9321 2474.9911 3278.8170 0.0000 -175621.9442 19915.8248 153.4904 0.0000 30849.0735 -117301.8154 299.9364 -148150.8889 -117257.8877 299.8972 -88.6188 -64.6899 497205.6883 7.6200 7.6712
ENERGY: 38000 1604.1344 2463.3934 3223.4125 0.0000 -175558.9874 19791.1840 161.5672 0.0000 30981.8832 -117333.4128 301.2277 -148315.2960 -117274.4915 299.8548 -60.7496 -40.1334 496955.5694 -9.8782 -9.0821
ENERGY: 39000 1660.4931 2458.4159 3212.5942 0.0000 -175586.1477 19900.1025 175.5740 0.0000 30829.0214 -117349.9466 299.7415 -148178.9680 -117312.0457 300.0603 -69.0457 -16.3825 497942.9273 12.3871 12.2799
ENERGY: 40000 1604.9048 2480.4022 3210.5098 0.0000 -175964.3729 20167.7070 168.9907 0.0000 30857.2731 -117474.5853 300.0162 -148331.8584 -117422.8562 300.1714 163.2617 67.5392 497835.5665 6.9697 7.4673
TCL: Setting parameter constraintScaling to 0.0390625
TCL: Running for 5000 steps
ETITLE: TS BOND ANGLE DIHED IMPRP ELECT VDW BOUNDARY MISC KINETIC TOTAL TEMP POTENTIAL TOTAL3 TEMPAVG PRESSURE GPRESSURE VOLUME PRESSAVG GPRESSAVG
ENERGY: 40000 1604.9048 2480.4022 3210.5098 0.0000 -175964.3729 20167.7070 84.4954 0.0000 30855.2596 -117561.0942 299.9966 -148416.3538 -117516.2342 299.9966 141.4043 55.7003 497835.5665 141.4043 55.7003
ENERGY: 41000 1676.2947 2426.1476 3235.5087 0.0000 -176154.7274 20010.7957 109.9972 0.0000 30942.6072 -117753.3764 300.8458 -148695.9836 -117713.8801 299.4733 -67.1946 -48.0712 495919.1838 -5.6751 -4.8409
ENERGY: 42000 1654.8530 2397.7180 3228.5283 0.0000 -175571.6682 19931.3513 122.6004 0.0000 30820.0288 -117416.5885 299.6540 -148236.6172 -117361.4221 299.6753 -4.9447 91.0404 496699.1885 2.0799 1.5578
ENERGY: 43000 1624.8907 2448.6466 3204.3798 0.0000 -175431.3064 19786.0188 111.0766 0.0000 31094.7279 -117161.5661 302.3249 -148256.2940 -117120.5458 300.8129 -51.6983 57.8589 495889.7481 4.7378 5.0962
ENERGY: 44000 1622.0612 2401.5034 3232.7365 0.0000 -175491.8370 19895.4700 119.3961 0.0000 30930.0730 -117290.5968 300.7240 -148220.6698 -117245.3720 300.9123 -4.2010 -51.9533 496940.3997 5.5426 5.6642
ENERGY: 45000 1609.2893 2437.6742 3249.4446 0.0000 -175660.4053 20101.8506 132.4840 0.0000 30969.6250 -117160.0377 301.1085 -148129.6627 -117103.2677 301.5294 140.6631 65.3112 497906.9809 9.2511 9.4192
TCL: Setting parameter constraintScaling to 0.01953125
TCL: Running for 5000 steps
ETITLE: TS BOND ANGLE DIHED IMPRP ELECT VDW BOUNDARY MISC KINETIC TOTAL TEMP POTENTIAL TOTAL3 TEMPAVG PRESSURE GPRESSURE VOLUME PRESSAVG GPRESSAVG
ENERGY: 45000 1609.2893 2437.6742 3249.4446 0.0000 -175660.4053 20101.8506 66.2420 0.0000 30967.5703 -117228.3344 301.0885 -148195.9047 -117183.8709 301.0885 128.7136 59.2244 497906.9809 128.7136 59.2244
ENERGY: 46000 1677.4376 2472.9437 3234.2583 0.0000 -175792.7307 19949.0207 86.0014 0.0000 31086.7042 -117286.3648 302.2468 -148373.0690 -117236.9040 301.3941 4.4588 25.4222 495458.7500 -4.7948 -4.2085
ENERGY: 47000 1661.3784 2492.2760 3209.9990 0.0000 -175622.5991 20053.8576 80.1867 0.0000 30869.2162 -117255.6853 300.1323 -148124.9014 -117210.7488 301.1856 19.1322 59.1464 496746.5771 5.9844 5.4559
ENERGY: 48000 1647.9778 2421.4156 3226.5537 0.0000 -175867.7462 19954.4788 82.6243 0.0000 30715.7163 -117818.9798 298.6398 -148534.6961 -117765.0228 299.8672 -59.4391 -7.3791 497905.9157 4.4803 4.6961
ENERGY: 49000 1587.6031 2424.9608 3233.3285 0.0000 -175924.4521 20099.9505 88.0655 0.0000 30744.4962 -117746.0475 298.9197 -148490.5438 -117702.3860 299.6705 68.2047 51.1660 496638.7272 -6.2179 -6.2541
ENERGY: 50000 1660.7137 2439.3278 3223.0718 0.0000 -176216.2200 20149.0379 89.2646 0.0000 30973.0603 -117681.7439 301.1419 -148654.8042 -117630.8886 299.4926 127.1230 39.7570 497915.2161 16.8897 16.6901
TCL: Setting parameter constraintScaling to 0
TCL: Running for 5000 steps
ETITLE: TS BOND ANGLE DIHED IMPRP ELECT VDW BOUNDARY MISC KINETIC TOTAL TEMP POTENTIAL TOTAL3 TEMPAVG PRESSURE GPRESSURE VOLUME PRESSAVG GPRESSAVG
ENERGY: 50000 1660.7137 2439.3278 3223.0718 0.0000 -176216.2200 20149.0379 0.0000 0.0000 30971.0225 -117773.0463 301.1221 -148744.0688 -117730.5675 301.1221 120.6122 37.0777 497915.2161 120.6122 37.0777
ENERGY: 51000 1624.2072 2389.8063 3195.9945 0.0000 -175632.5282 20026.3444 0.0000 0.0000 30773.9512 -117622.2246 299.2060 -148396.1758 -117574.6547 299.7613 5.9885 22.9482 497790.2977 17.0984 17.5782
ENERGY: 52000 1610.3622 2376.3526 3231.5903 0.0000 -175952.5953 20003.9689 0.0000 0.0000 30836.0533 -117894.2680 299.8098 -148730.3213 -117844.8414 299.3590 23.1204 40.2597 495423.0072 -19.7930 -19.6654
ENERGY: 53000 1574.7860 2400.7379 3173.0347 0.0000 -175988.8636 19841.3521 0.0000 0.0000 31039.6926 -117959.2602 301.7898 -148998.9528 -117908.8608 299.4585 -38.7243 -65.3139 494694.2959 -0.8807 -0.0110
ENERGY: 54000 1584.2382 2367.3423 3181.1789 0.0000 -175565.0511 19849.4769 0.0000 0.0000 30895.1268 -117687.6880 300.3842 -148582.8148 -117643.5868 298.7789 -60.8363 25.6055 496888.9148 12.3596 11.9015
ENERGY: 55000 1642.1812 2413.9032 3230.2376 0.0000 -175995.2991 19995.1098 0.0000 0.0000 30849.3779 -117864.4893 299.9394 -148713.8673 -117815.4866 299.7711 -133.9416 -84.2172 496634.9657 3.6053 3.9915
