Info: SIMULATION PARAMETERS:
Info: TIMESTEP               2
Info: NUMBER OF STEPS        0
Info: STEPS PER CYCLE        10
Info: PERIODIC CELL BASIS 1  72.449 0 0
Info: PERIODIC CELL BASIS 2  0 93.247 0
Info: PERIODIC CELL BASIS 3  0 0 79.185
Info: PERIODIC CELL CENTER   -0.248 -0.156 -0.047
Info: WRAPPING WATERS AROUND PERIODIC BOUNDARIES ON OUTPUT.
Info: WRAPPING ALL CLUSTERS AROUND PERIODIC BOUNDARIES ON OUTPUT.
Info: FIRST LDB TIMESTEP     50
Info: LAST LDB TIMESTEP     -1
Info: HOM BACKGROUND SCALING 1
Info: PME BACKGROUND SCALING 1
Info: MIN ATOMS PER PATCH    40
Info: INITIAL TEMPERATURE    0
Info: CENTER OF MASS MOVING INITIALLY? NO
Info: DIELECTRIC             1
Info: EXCLUDE                SCALED ONE-FOUR
Info: 1-4 ELECTROSTATICS SCALED BY 0.833333
Info: MODIFIED 1-4 VDW PARAMETERS WILL BE USED
Info: NO DCD TRAJECTORY OUTPUT
Info: NO EXTENDED SYSTEM TRAJECTORY OUTPUT
Info: NO VELOCITY DCD OUTPUT
Info: NO FORCE DCD OUTPUT
Info: OUTPUT FILENAME        ../replicas/rep2/equilibration/eq0
Info: NO RESTART FILE
Info: SWITCHING ACTIVE
Info: SWITCHING ON           10
Info: SWITCHING OFF          12
Info: PAIRLIST DISTANCE      13.5
Info: PAIRLIST SHRINK RATE   0.01
Info: PAIRLIST GROW RATE     0.01
Info: PAIRLIST TRIGGER       0.3
Info: PAIRLISTS PER CYCLE    2
Info: PAIRLISTS ENABLED
Info: MARGIN                 0
Info: HYDROGEN GROUP CUTOFF  2.5
Info: PATCH DIMENSION        16
Info: ENERGY OUTPUT STEPS    500
Info: CROSSTERM ENERGY INCLUDED IN DIHEDRAL
Info: TIMING OUTPUT STEPS    5000
Info: PRESSURE OUTPUT STEPS  500
Info: HARMONIC CONSTRAINTS ACTIVE
Info: HARMONIC CONS EXP      2
Info: HARMONIC CONS SCALING  10
Info: CONJUGATE GRADIENT MINIMIZATION ACTIVE
Info: LINE MINIMIZATION GOAL = 0.001
Info: BABY STEP SIZE = 0.01
Info: TINY STEP SIZE = 1e-06
Info: PARTICLE MESH EWALD (PME) ACTIVE
Info: PME TOLERANCE               1e-06
Info: PME EWALD COEFFICIENT       0.257952
Info: PME INTERPOLATION ORDER     4
Info: PME GRID DIMENSIONS         80 96 80
Info: PME MAXIMUM GRID SPACING    1
Info: FULL ELECTROSTATIC EVALUATION FREQUENCY      2
Info: USING VERLET I (r-RESPA) MTS SCHEME.
Info: C1 SPLITTING OF LONG RANGE ELECTROSTATICS
Info: PLACING ATOMS IN PATCHES BY HYDROGEN GROUPS
Info: RIGID BONDS TO HYDROGEN : ALL
Info:         ERROR TOLERANCE : 1e-05
Info:          MAX ITERATIONS : 100
Info: RIGID WATER USING SETTLE ALGORITHM
Info: RANDOM NUMBER SEED     1503249631
Info: USE HYDROGEN BONDS?    NO
Info: Using AMBER format force field!
Info: AMBER PARM FILE        ../build/complex.top
Info: COORDINATE PDB         ../build/complex.pdb
Info: Exclusions in PARM file will be ignored!
Info: SCNB (VDW SCALING)     2
Info: USING ARITHMETIC MEAN TO COMBINE L-J SIGMA PARAMETERS
Info: SUMMARY OF PARAMETERS:
Info: 71 BONDS
Info: 145 ANGLES
Info:   145 HARMONIC
Info:   0 COSINE-BASED
Info: 76 DIHEDRAL
Info: 0 IMPROPER
Info: 0 CROSSTERM
Info: 0 VDW
Info: 190 VDW_PAIRS
Info: 0 NBTHOLE_PAIRS
Info: STRUCTURE SUMMARY:
Info: 49394 ATOMS
Info: 49448 BONDS
Info: 8698 ANGLES
Info: 18780 DIHEDRALS
Info: 0 IMPROPERS
Info: 0 CROSSTERMS
Info: 0 EXCLUSIONS
Info: 2336 CONSTRAINTS
Info: 47058 RIGID BONDS
Info: 101124 DEGREES OF FREEDOM
Info: 17225 HYDROGEN GROUPS
Info: 4 ATOMS IN LARGEST HYDROGEN GROUP
Info: 17225 MIGRATION GROUPS
Info: 4 ATOMS IN LARGEST MIGRATION GROUP
Info: TOTAL MASS = 301478 amu
Info: TOTAL CHARGE = 1.00115e-05 e
Info: MASS DENSITY = 0.935846 g/cm^3
Info: ATOM DENSITY = 0.0923345 atoms/A^3
Info: ADDED 70656 IMPLICIT EXCLUSIONS
Info: NONBONDED TABLE R-SQUARED SPACING: 0.0625
Info: NONBONDED TABLE SIZE: 769 POINTS
Info: REMOVING COM VELOCITY 0 0 0
TCL: Minimizing for 100 steps
ETITLE: TS BOND ANGLE DIHED IMPRP ELECT VDW BOUNDARY MISC KINETIC TOTAL TEMP POTENTIAL TOTAL3 TEMPAVG PRESSURE GPRESSURE VOLUME PRESSAVG GPRESSAVG
ENERGY: 0 155.4176 1012.2698 2855.7272 0.0000 -154496.7911 207729.2052 0.0468 0.0000 0.0000 57255.8755 0.0000 57255.8755 57255.8755 0.0000 116350.2532 86546.1670 534946.2959 116350.2532 86546.1670
ENERGY: 20 304.7541 935.7910 2893.4663 0.0000 -158672.9397 17936.6598 143.9454 0.0000 0.0000 -136458.3231 0.0000 -136458.3231 -136458.3231 0.0000 16523.9391 -239.4553 534946.2959 16523.9391 -239.4553
ENERGY: 40 198.7442 799.5727 2896.9273 0.0000 -162811.4541 16417.9534 221.3030 0.0000 0.0000 -142276.9535 0.0000 -142276.9535 -142276.9535 0.0000 15011.2700 -2135.4702 534946.2959 15011.2700 -2135.4702
ENERGY: 60 130.5282 715.3440 2898.2166 0.0000 -167496.1587 15446.7537 315.2796 0.0000 0.0000 -147990.0367 0.0000 -147990.0367 -147990.0367 0.0000 13793.8833 -3799.3992 534946.2959 13793.8833 -3799.3992
ENERGY: 80 431.2738 765.6310 2904.3785 0.0000 -169937.5264 15121.1528 372.0121 0.0000 0.0000 -150343.0782 0.0000 -150343.0782 -150343.0782 0.0000 13270.3315 -4577.2442 534946.2959 13270.3315 -4577.2442
ENERGY: 100 119.3871 710.0602 2905.2590 0.0000 -171259.7170 14991.7865 387.3613 0.0000 0.0000 -152145.8628 0.0000 -152145.8628 -152145.8628 0.0000 13056.2645 -4908.1740 534946.2959 13056.2645 -4908.1740
TCL: Setting parameter constraintScaling to 5.0
TCL: Minimizing for 100 steps
ETITLE: TS BOND ANGLE DIHED IMPRP ELECT VDW BOUNDARY MISC KINETIC TOTAL TEMP POTENTIAL TOTAL3 TEMPAVG PRESSURE GPRESSURE VOLUME PRESSAVG GPRESSAVG
ENERGY: 100 119.3871 710.0602 2905.2590 0.0000 -171259.7170 14991.7865 193.6807 0.0000 0.0000 -152339.5435 0.0000 -152339.5435 -152339.5435 0.0000 13672.7707 -23021.8200 534946.2959 13672.7707 -23021.8200
ENERGY: 120 108.8845 687.5845 2912.9267 0.0000 -172865.8746 14798.2711 281.1914 0.0000 0.0000 -154077.0163 0.0000 -154077.0163 -154077.0163 0.0000 13218.2564 -4906.0139 534946.2959 13218.2564 -4906.0139
ENERGY: 140 309.4534 708.8708 2913.8026 0.0000 -174236.6356 14731.4833 326.6385 0.0000 0.0000 -155246.3869 0.0000 -155246.3869 -155246.3869 0.0000 12971.5297 -5303.2357 534946.2959 12971.5297 -5303.2357
ENERGY: 160 265.1501 683.0886 2923.1689 0.0000 -176274.7692 14757.3020 382.8684 0.0000 0.0000 -157263.1912 0.0000 -157263.1912 -157263.1912 0.0000 12741.0308 -5742.1841 534946.2959 12741.0308 -5742.1841
ENERGY: 180 268.9499 744.0948 2928.5662 0.0000 -178994.9338 15023.4356 473.2778 0.0000 0.0000 -159556.6093 0.0000 -159556.6093 -159556.6093 0.0000 12521.6315 -6223.0786 534946.2959 12521.6315 -6223.0786
ENERGY: 200 238.8405 694.0969 2941.3590 0.0000 -181555.9631 15586.9805 546.2606 0.0000 0.0000 -161548.4256 0.0000 -161548.4256 -161548.4256 0.0000 12582.6412 -6430.6533 534946.2959 12582.6412 -6430.6533
TCL: Setting parameter constraintScaling to 2.5
TCL: Minimizing for 100 steps
ETITLE: TS BOND ANGLE DIHED IMPRP ELECT VDW BOUNDARY MISC KINETIC TOTAL TEMP POTENTIAL TOTAL3 TEMPAVG PRESSURE GPRESSURE VOLUME PRESSAVG GPRESSAVG
ENERGY: 200 238.8405 694.0969 2941.3590 0.0000 -181555.9631 15586.9805 273.1303 0.0000 0.0000 -161821.5559 0.0000 -161821.5559 -161821.5559 0.0000 13229.5413 -25661.4334 534946.2959 13229.5413 -25661.4334
ENERGY: 220 251.1295 680.0054 2933.0272 0.0000 -182082.9628 15470.7760 338.6313 0.0000 0.0000 -162409.3935 0.0000 -162409.3935 -162409.3935 0.0000 12967.7106 -6101.1636 534946.2959 12967.7106 -6101.1636
ENERGY: 240 139.2639 665.8229 2928.5980 0.0000 -182462.5996 15494.1391 343.6161 0.0000 0.0000 -162891.1595 0.0000 -162891.1595 -162891.1595 0.0000 13034.2421 -6113.9873 534946.2959 13034.2421 -6113.9873
ENERGY: 260 164.8076 683.7456 2921.6251 0.0000 -183940.9828 15800.2754 385.4172 0.0000 0.0000 -163985.1119 0.0000 -163985.1119 -163985.1119 0.0000 13031.8776 -6252.3796 534946.2959 13031.8776 -6252.3796
ENERGY: 280 169.0536 700.9319 2917.6091 0.0000 -185423.8371 16229.3857 454.8008 0.0000 0.0000 -164952.0560 0.0000 -164952.0560 -164952.0560 0.0000 13143.8405 -6344.3831 534946.2959 13143.8405 -6344.3831
ENERGY: 300 126.6709 639.5576 2916.2556 0.0000 -186096.0151 16446.4186 481.3795 0.0000 0.0000 -165485.7331 0.0000 -165485.7331 -165485.7331 0.0000 13208.0395 -6348.6583 534946.2959 13208.0395 -6348.6583
TCL: Setting parameter constraintScaling to 1.25
TCL: Minimizing for 100 steps
ETITLE: TS BOND ANGLE DIHED IMPRP ELECT VDW BOUNDARY MISC KINETIC TOTAL TEMP POTENTIAL TOTAL3 TEMPAVG PRESSURE GPRESSURE VOLUME PRESSAVG GPRESSAVG
ENERGY: 300 126.6709 639.5576 2916.2556 0.0000 -186096.0151 16446.4186 240.6897 0.0000 0.0000 -165726.4228 0.0000 -165726.4228 -165726.4228 0.0000 13656.3951 -26358.7927 534946.2959 13656.3951 -26358.7927
ENERGY: 320 132.0730 624.5888 2911.1518 0.0000 -186667.2785 16580.3898 272.7659 0.0000 0.0000 -166146.3092 0.0000 -166146.3092 -166146.3092 0.0000 13629.8903 -5980.1703 534946.2959 13629.8903 -5980.1703
ENERGY: 340 150.3762 624.6296 2910.6363 0.0000 -187379.2247 16811.9892 296.0477 0.0000 0.0000 -166585.5457 0.0000 -166585.5457 -166585.5457 0.0000 13649.0098 -6016.5625 534946.2959 13649.0098 -6016.5625
ENERGY: 360 314.7734 691.5287 2906.9030 0.0000 -189033.3269 17379.7463 361.9268 0.0000 0.0000 -167378.4486 0.0000 -167378.4486 -167378.4486 0.0000 13881.3132 -6012.6294 534946.2959 13881.3132 -6012.6294
ENERGY: 380 180.0418 659.2630 2901.9295 0.0000 -189870.4483 17709.2932 380.1547 0.0000 0.0000 -168039.7661 0.0000 -168039.7661 -168039.7661 0.0000 13966.6332 -5995.7640 534946.2959 13966.6332 -5995.7640
ENERGY: 400 136.3960 634.1476 2899.7384 0.0000 -190382.5678 17902.3424 392.3594 0.0000 0.0000 -168417.5839 0.0000 -168417.5839 -168417.5839 0.0000 14073.2678 -5955.5657 534946.2959 14073.2678 -5955.5657
TCL: Setting parameter constraintScaling to 0.625
TCL: Minimizing for 100 steps
ETITLE: TS BOND ANGLE DIHED IMPRP ELECT VDW BOUNDARY MISC KINETIC TOTAL TEMP POTENTIAL TOTAL3 TEMPAVG PRESSURE GPRESSURE VOLUME PRESSAVG GPRESSAVG
ENERGY: 400 136.3960 634.1476 2899.7384 0.0000 -190382.5678 17902.3424 196.1797 0.0000 0.0000 -168613.7636 0.0000 -168613.7636 -168613.7636 0.0000 14371.3067 -26645.2936 534946.2959 14371.3067 -26645.2936
ENERGY: 420 137.8122 633.4495 2897.0513 0.0000 -190686.9113 17961.8065 215.1331 0.0000 0.0000 -168841.6587 0.0000 -168841.6587 -168841.6587 0.0000 14336.4993 -5724.6189 534946.2959 14336.4993 -5724.6189
ENERGY: 440 158.8368 630.0792 2892.8014 0.0000 -191269.0040 18140.7535 231.0572 0.0000 0.0000 -169215.4759 0.0000 -169215.4759 -169215.4759 0.0000 14380.9150 -5741.5896 534946.2959 14380.9150 -5741.5896
ENERGY: 460 189.0909 663.3544 2888.9129 0.0000 -192212.2948 18469.0524 258.5082 0.0000 0.0000 -169743.3758 0.0000 -169743.3758 -169743.3758 0.0000 14459.0121 -5759.1495 534946.2959 14459.0121 -5759.1495
ENERGY: 480 160.8260 669.4118 2887.2514 0.0000 -192437.4129 18557.2633 261.2262 0.0000 0.0000 -169901.4343 0.0000 -169901.4343 -169901.4343 0.0000 14568.3753 -5692.7602 534946.2959 14568.3753 -5692.7602
ENERGY: 500 199.0543 675.3132 2883.8880 0.0000 -193498.0685 18966.0378 286.5743 0.0000 0.0000 -170487.2009 0.0000 -170487.2009 -170487.2009 0.0000 14743.7913 -5646.4793 534946.2959 14743.7913 -5646.4793
TCL: Setting parameter constraintScaling to 0.3125
TCL: Minimizing for 100 steps
ETITLE: TS BOND ANGLE DIHED IMPRP ELECT VDW BOUNDARY MISC KINETIC TOTAL TEMP POTENTIAL TOTAL3 TEMPAVG PRESSURE GPRESSURE VOLUME PRESSAVG GPRESSAVG
ENERGY: 500 199.0543 675.3132 2883.8880 0.0000 -193498.0685 18966.0378 143.2872 0.0000 0.0000 -170630.4880 0.0000 -170630.4880 -170630.4880 0.0000 14931.8244 -26815.9260 534946.2959 14931.8244 -26815.9260
ENERGY: 520 169.4395 659.6176 2880.5111 0.0000 -193783.6336 19055.1767 154.3234 0.0000 0.0000 -170864.5652 0.0000 -170864.5652 -170864.5652 0.0000 14899.7317 -5501.6696 534946.2959 14899.7317 -5501.6696
ENERGY: 540 160.5760 645.6131 2876.5871 0.0000 -194229.0935 19201.3022 167.8442 0.0000 0.0000 -171177.1710 0.0000 -171177.1710 -171177.1710 0.0000 14970.2822 -5485.7821 534946.2959 14970.2822 -5485.7821
ENERGY: 560 190.1068 693.7751 2875.7766 0.0000 -195182.1407 19569.2242 186.5953 0.0000 0.0000 -171666.6627 0.0000 -171666.6627 -171666.6627 0.0000 15147.7580 -5430.2776 534946.2959 15147.7580 -5430.2776
ENERGY: 580 195.4727 676.9400 2871.5269 0.0000 -196443.3499 20087.7904 223.1097 0.0000 0.0000 -172388.5102 0.0000 -172388.5102 -172388.5102 0.0000 15300.9198 -5396.1594 534946.2959 15300.9198 -5396.1594
ENERGY: 600 173.9304 660.5593 2866.7106 0.0000 -196752.9181 20218.8701 226.2706 0.0000 0.0000 -172606.5770 0.0000 -172606.5770 -172606.5770 0.0000 15423.7219 -5331.3698 534946.2959 15423.7219 -5331.3698
TCL: Setting parameter constraintScaling to 0.15625
TCL: Minimizing for 100 steps
ETITLE: TS BOND ANGLE DIHED IMPRP ELECT VDW BOUNDARY MISC KINETIC TOTAL TEMP POTENTIAL TOTAL3 TEMPAVG PRESSURE GPRESSURE VOLUME PRESSAVG GPRESSAVG
ENERGY: 600 173.9304 660.5593 2866.7106 0.0000 -196752.9181 20218.8701 113.1353 0.0000 0.0000 -172719.7123 0.0000 -172719.7123 -172719.7123 0.0000 15546.9555 -26966.0963 534946.2959 15546.9555 -26966.0963
ENERGY: 620 158.5938 647.0123 2863.0138 0.0000 -196957.4598 20284.8593 116.6017 0.0000 0.0000 -172887.3790 0.0000 -172887.3790 -172887.3790 0.0000 15550.8820 -5221.2793 534946.2959 15550.8820 -5221.2793
ENERGY: 640 201.0155 650.2512 2862.0633 0.0000 -197722.5997 20557.3447 126.9253 0.0000 0.0000 -173324.9998 0.0000 -173324.9998 -173324.9998 0.0000 15599.5827 -5230.6116 534946.2959 15599.5827 -5230.6116
ENERGY: 660 158.0057 650.9053 2857.4846 0.0000 -197884.9112 20609.1369 128.5452 0.0000 0.0000 -173480.8335 0.0000 -173480.8335 -173480.8335 0.0000 15712.8694 -5169.7925 534946.2959 15712.8694 -5169.7925
ENERGY: 680 165.7769 649.9749 2854.0453 0.0000 -198366.7533 20783.1956 133.8908 0.0000 0.0000 -173779.8698 0.0000 -173779.8698 -173779.8698 0.0000 15795.2883 -5145.0219 534946.2959 15795.2883 -5145.0219
ENERGY: 700 168.1660 643.7592 2849.3655 0.0000 -199722.2089 21321.7618 153.3600 0.0000 0.0000 -174585.7964 0.0000 -174585.7964 -174585.7964 0.0000 15964.4037 -5101.3465 534946.2959 15964.4037 -5101.3465
TCL: Setting parameter constraintScaling to 0.078125
TCL: Minimizing for 100 steps
ETITLE: TS BOND ANGLE DIHED IMPRP ELECT VDW BOUNDARY MISC KINETIC TOTAL TEMP POTENTIAL TOTAL3 TEMPAVG PRESSURE GPRESSURE VOLUME PRESSAVG GPRESSAVG
ENERGY: 700 168.1660 643.7592 2849.3655 0.0000 -199722.2089 21321.7618 76.6800 0.0000 0.0000 -174662.4764 0.0000 -174662.4764 -174662.4764 0.0000 16039.1251 -27188.3142 534946.2959 16039.1251 -27188.3142
ENERGY: 720 179.5325 645.6827 2840.7383 0.0000 -200000.6846 21416.6901 79.3526 0.0000 0.0000 -174838.6882 0.0000 -174838.6882 -174838.6882 0.0000 16088.7044 -5013.2283 534946.2959 16088.7044 -5013.2283
ENERGY: 740 174.4011 646.6945 2836.5399 0.0000 -200503.0575 21600.3171 84.5243 0.0000 0.0000 -175160.5806 0.0000 -175160.5806 -175160.5806 0.0000 16195.3864 -4972.7210 534946.2959 16195.3864 -4972.7210
ENERGY: 760 164.3898 652.1932 2836.9286 0.0000 -200600.0999 21622.7444 84.8129 0.0000 0.0000 -175239.0309 0.0000 -175239.0309 -175239.0309 0.0000 16242.0837 -4951.0165 534946.2959 16242.0837 -4951.0165
ENERGY: 780 352.6966 673.5425 2842.1717 0.0000 -201097.6081 21813.2655 88.6905 0.0000 0.0000 -175327.2413 0.0000 -175327.2413 -175327.2413 0.0000 16259.0856 -4977.0891 534946.2959 16259.0856 -4977.0891
ENERGY: 800 164.9941 665.7284 2832.7539 0.0000 -201809.8258 22100.1222 95.0237 0.0000 0.0000 -175951.2036 0.0000 -175951.2036 -175951.2036 0.0000 16498.0855 -4848.6482 534946.2959 16498.0855 -4848.6482
TCL: Setting parameter constraintScaling to 0.0390625
TCL: Minimizing for 100 steps
ETITLE: TS BOND ANGLE DIHED IMPRP ELECT VDW BOUNDARY MISC KINETIC TOTAL TEMP POTENTIAL TOTAL3 TEMPAVG PRESSURE GPRESSURE VOLUME PRESSAVG GPRESSAVG
ENERGY: 800 164.9941 665.7284 2832.7539 0.0000 -201809.8258 22100.1222 47.5118 0.0000 0.0000 -175998.7155 0.0000 -175998.7155 -175998.7155 0.0000 16540.6540 -27184.2033 534946.2959 16540.6540 -27184.2033
ENERGY: 820 272.4317 686.4702 2828.7947 0.0000 -202025.5043 22167.4738 48.8559 0.0000 0.0000 -176021.4780 0.0000 -176021.4780 -176021.4780 0.0000 16543.4604 -4837.2622 534946.2959 16543.4604 -4837.2622
ENERGY: 840 177.6159 655.2001 2823.4843 0.0000 -202469.9593 22354.2621 51.4407 0.0000 0.0000 -176407.9562 0.0000 -176407.9562 -176407.9562 0.0000 16598.1936 -4801.9570 534946.2959 16598.1936 -4801.9570
ENERGY: 860 167.3459 653.3562 2824.2973 0.0000 -202840.6822 22494.3168 53.2314 0.0000 0.0000 -176648.1347 0.0000 -176648.1347 -176648.1347 0.0000 16674.4599 -4770.2865 534946.2959 16674.4599 -4770.2865
ENERGY: 880 165.4633 668.6935 2825.8819 0.0000 -203143.3378 22625.3869 54.1716 0.0000 0.0000 -176803.7406 0.0000 -176803.7406 -176803.7406 0.0000 16772.3523 -4721.6258 534946.2959 16772.3523 -4721.6258
ENERGY: 900 173.0483 666.0563 2822.3814 0.0000 -203579.9470 22802.5552 56.3724 0.0000 0.0000 -177059.5334 0.0000 -177059.5334 -177059.5334 0.0000 16879.1211 -4674.3531 534946.2959 16879.1211 -4674.3531
TCL: Setting parameter constraintScaling to 0.01953125
TCL: Minimizing for 100 steps
ETITLE: TS BOND ANGLE DIHED IMPRP ELECT VDW BOUNDARY MISC KINETIC TOTAL TEMP POTENTIAL TOTAL3 TEMPAVG PRESSURE GPRESSURE VOLUME PRESSAVG GPRESSAVG
ENERGY: 900 173.0483 666.0563 2822.3814 0.0000 -203579.9470 22802.5552 28.1862 0.0000 0.0000 -177087.7196 0.0000 -177087.7196 -177087.7196 0.0000 16902.8870 -27245.4362 534946.2959 16902.8870 -27245.4362
ENERGY: 920 165.6510 650.2022 2818.9726 0.0000 -203648.1701 22827.4969 28.5173 0.0000 0.0000 -177157.3301 0.0000 -177157.3301 -177157.3301 0.0000 16865.5148 -4674.5723 534946.2959 16865.5148 -4674.5723
ENERGY: 940 167.2074 661.1820 2816.0207 0.0000 -203943.4311 22961.3705 29.6823 0.0000 0.0000 -177307.9682 0.0000 -177307.9682 -177307.9682 0.0000 16947.9159 -4639.0398 534946.2959 16947.9159 -4639.0398
ENERGY: 960 168.7543 660.3026 2814.7478 0.0000 -204180.8933 23063.3635 30.3545 0.0000 0.0000 -177443.3706 0.0000 -177443.3706 -177443.3706 0.0000 17017.7974 -4602.7326 534946.2959 17017.7974 -4602.7326
ENERGY: 980 169.4991 656.8836 2814.3624 0.0000 -204498.6410 23188.8123 31.1115 0.0000 0.0000 -177637.9722 0.0000 -177637.9722 -177637.9722 0.0000 17065.2621 -4584.9503 534946.2959 17065.2621 -4584.9503
ENERGY: 1000 166.5158 656.5135 2813.2208 0.0000 -204572.9096 23221.8788 31.2569 0.0000 0.0000 -177683.5237 0.0000 -177683.5237 -177683.5237 0.0000 17091.2711 -4569.5560 534946.2959 17091.2711 -4569.5560
TCL: Setting parameter constraintScaling to 0
TCL: Minimizing for 5000 steps
ETITLE: TS BOND ANGLE DIHED IMPRP ELECT VDW BOUNDARY MISC KINETIC TOTAL TEMP POTENTIAL TOTAL3 TEMPAVG PRESSURE GPRESSURE VOLUME PRESSAVG GPRESSAVG
ENERGY: 1000 166.5158 656.5135 2813.2208 0.0000 -204572.9096 23221.8788 0.0000 0.0000 0.0000 -177714.7806 0.0000 -177714.7806 -177714.7806 0.0000 17116.6214 -27269.8920 534946.2959 17116.6214 -27269.8920
ENERGY: 2000 168.9398 660.8021 2804.1839 0.0000 -214624.6480 27838.3176 0.0000 0.0000 0.0000 -183152.4047 0.0000 -183152.4047 -183152.4047 0.0000 19582.7768 -3214.4773 534946.2959 19582.7768 -3214.4773
ENERGY: 3000 167.7542 668.2038 2796.8129 0.0000 -217470.7007 28887.6752 0.0000 0.0000 0.0000 -184950.2546 0.0000 -184950.2546 -184950.2546 0.0000 20113.2386 -2951.3157 534946.2959 20113.2386 -2951.3157
ENERGY: 4000 166.3072 665.7951 2789.7148 0.0000 -218673.1959 29360.7280 0.0000 0.0000 0.0000 -185690.6508 0.0000 -185690.6508 -185690.6508 0.0000 20359.6371 -2830.1898 534946.2959 20359.6371 -2830.1898
ENERGY: 5000 166.1882 663.5876 2787.3183 0.0000 -219464.6626 29709.3183 0.0000 0.0000 0.0000 -186138.2502 0.0000 -186138.2502 -186138.2502 0.0000 20537.6000 -2732.4178 534946.2959 20537.6000 -2732.4178
ENERGY: 6000 167.2031 663.8947 2785.0768 0.0000 -219798.4477 29802.6644 0.0000 0.0000 0.0000 -186379.6088 0.0000 -186379.6088 -186379.6088 0.0000 20580.8082 -2723.4358 534946.2959 20580.8082 -2723.4358
