Info: SIMULATION PARAMETERS:
Info: TIMESTEP               1
Info: NUMBER OF STEPS        0
Info: STEPS PER CYCLE        10
Info: PERIODIC CELL BASIS 1  72.449 0 0
Info: PERIODIC CELL BASIS 2  0 93.247 0
Info: PERIODIC CELL BASIS 3  0 0 79.185
Info: PERIODIC CELL CENTER   -0.248 -0.156 -0.047
Info: WRAPPING WATERS AROUND PERIODIC BOUNDARIES ON OUTPUT.
Info: WRAPPING ALL CLUSTERS AROUND PERIODIC BOUNDARIES ON OUTPUT.
Info: FIRST LDB TIMESTEP     50
Info: LAST LDB TIMESTEP     -1
Info: HOM BACKGROUND SCALING 1
Info: PME BACKGROUND SCALING 1
Info: MIN ATOMS PER PATCH    40
Info: VELOCITY FILE          ../replicas/rep25/equilibration/eq1.vel
Info: CENTER OF MASS MOVING INITIALLY? NO
Info: DIELECTRIC             1
Info: EXCLUDE                SCALED ONE-FOUR
Info: 1-4 ELECTROSTATICS SCALED BY 0.833333
Info: MODIFIED 1-4 VDW PARAMETERS WILL BE USED
Info: DCD FILENAME           ../replicas/rep25/equilibration/eq2.dcd
Info: DCD FREQUENCY          5000
Info: DCD FIRST STEP         5000
Info: DCD FILE WILL CONTAIN UNIT CELL DATA
Info: XST FILENAME           ../replicas/rep25/equilibration/eq2.xst
Info: XST FREQUENCY          5000
Info: NO VELOCITY DCD OUTPUT
Info: NO FORCE DCD OUTPUT
Info: OUTPUT FILENAME        ../replicas/rep25/equilibration/eq2
Info: RESTART FILENAME       ../replicas/rep25/equilibration/eq2.restart
Info: RESTART FREQUENCY      5000
Info: BINARY RESTART FILES WILL BE USED
Info: SWITCHING ACTIVE
Info: SWITCHING ON           10
Info: SWITCHING OFF          12
Info: PAIRLIST DISTANCE      13.5
Info: PAIRLIST SHRINK RATE   0.01
Info: PAIRLIST GROW RATE     0.01
Info: PAIRLIST TRIGGER       0.3
Info: PAIRLISTS PER CYCLE    2
Info: PAIRLISTS ENABLED
Info: MARGIN                 0.48
Info: HYDROGEN GROUP CUTOFF  2.5
Info: PATCH DIMENSION        16.48
Info: ENERGY OUTPUT STEPS    500
Info: CROSSTERM ENERGY INCLUDED IN DIHEDRAL
Info: TIMING OUTPUT STEPS    5000
Info: PRESSURE OUTPUT STEPS  500
Info: HARMONIC CONSTRAINTS ACTIVE
Info: HARMONIC CONS EXP      2
Info: HARMONIC CONS SCALING  10
Info: LANGEVIN DYNAMICS ACTIVE
Info: LANGEVIN TEMPERATURE   300
Info: LANGEVIN USING BBK INTEGRATOR
Info: LANGEVIN DAMPING COEFFICIENT IS 5 INVERSE PS
Info: LANGEVIN DYNAMICS NOT APPLIED TO HYDROGENS
Info: BERENDSEN PRESSURE COUPLING ACTIVE
Info:     TARGET PRESSURE IS 1 BAR
Info:     COMPRESSIBILITY ESTIMATE IS 4.57e-05 BAR^(-1)
Info:     RELAXATION TIME IS 100 FS
Info:     APPLIED EVERY 2 STEPS
Info:     PRESSURE CONTROL IS GROUP-BASED
Info:       CELL FLUCTUATION IS ISOTROPIC
Info: PARTICLE MESH EWALD (PME) ACTIVE
Info: PME TOLERANCE               1e-06
Info: PME EWALD COEFFICIENT       0.257952
Info: PME INTERPOLATION ORDER     4
Info: PME GRID DIMENSIONS         80 96 80
Info: PME MAXIMUM GRID SPACING    1
Info: FULL ELECTROSTATIC EVALUATION FREQUENCY      2
Info: USING VERLET I (r-RESPA) MTS SCHEME.
Info: C1 SPLITTING OF LONG RANGE ELECTROSTATICS
Info: PLACING ATOMS IN PATCHES BY HYDROGEN GROUPS
Info: RIGID BONDS TO HYDROGEN : WATER
Info:         ERROR TOLERANCE : 1e-05
Info:          MAX ITERATIONS : 100
Info: RIGID WATER USING SETTLE ALGORITHM
Info: RANDOM NUMBER SEED     1503700414
Info: USE HYDROGEN BONDS?    NO
Info: Using AMBER format force field!
Info: AMBER PARM FILE        ../build/complex.top
Info: COORDINATE PDB         ../replicas/rep25/equilibration/eq1.coor
Info: Exclusions in PARM file will be ignored!
Info: SCNB (VDW SCALING)     2
Info: USING ARITHMETIC MEAN TO COMBINE L-J SIGMA PARAMETERS
Info: SUMMARY OF PARAMETERS:
Info: 71 BONDS
Info: 145 ANGLES
Info: 76 DIHEDRAL
Info: 0 IMPROPER
Info: 0 CROSSTERM
Info: 0 VDW
Info: 190 VDW_PAIRS
Info: 0 NBTHOLE_PAIRS
Info: STRUCTURE SUMMARY:
Info: 49394 ATOMS
Info: 49448 BONDS
Info: 8698 ANGLES
Info: 18780 DIHEDRALS
Info: 0 IMPROPERS
Info: 0 CROSSTERMS
Info: 0 EXCLUSIONS
Info: 2336 CONSTRAINTS
Info: 44667 RIGID BONDS
Info: 103515 DEGREES OF FREEDOM
Info: 17225 HYDROGEN GROUPS
Info: 4 ATOMS IN LARGEST HYDROGEN GROUP
Info: 17225 MIGRATION GROUPS
Info: 4 ATOMS IN LARGEST MIGRATION GROUP
Info: TOTAL MASS = 301478 amu
Info: TOTAL CHARGE = 1.00115e-05 e
Info: MASS DENSITY = 0.935846 g/cm^3
Info: ATOM DENSITY = 0.0923345 atoms/A^3
Info: ADDED 70656 IMPLICIT EXCLUSIONS
Info: NONBONDED TABLE R-SQUARED SPACING: 0.0625
Info: NONBONDED TABLE SIZE: 769 POINTS
Info: REMOVING COM VELOCITY 0.0151392 -0.0139297 0.0239195
TCL: Running for 5000 steps
ETITLE: TS BOND ANGLE DIHED IMPRP ELECT VDW BOUNDARY MISC KINETIC TOTAL TEMP POTENTIAL TOTAL3 TEMPAVG PRESSURE GPRESSURE VOLUME PRESSAVG GPRESSAVG
ENERGY: 0 405.5713 1212.3684 2922.7421 0.0000 -212558.3653 29446.7912 0.0000 0.0000 9953.9604 -168616.9320 96.7794 -178570.8923 -168607.1547 96.7794 -2508.8888 -2612.9032 534946.2959 -2508.8888 -2612.9032
ENERGY: 1000 1270.3564 1935.0894 3108.4775 0.0000 -193265.2213 26437.3433 767.8910 0.0000 24174.0669 -135571.9968 235.0373 -159746.0637 -135543.8793 218.7000 -70.2250 -40.3560 522019.5759 -28.1674 -28.4433
ENERGY: 2000 1434.3037 2170.9825 3172.3468 0.0000 -184008.5546 23334.4945 804.4960 0.0000 27978.0535 -125113.8775 272.0224 -153091.9310 -125075.7683 264.7650 -42.4248 -15.2657 515283.4910 -27.3155 -27.3098
ENERGY: 3000 1548.8980 2143.5928 3165.1804 0.0000 -179175.7735 21602.4808 800.7933 0.0000 29651.4589 -120263.3694 288.2924 -149914.8282 -120213.8033 284.4161 -16.8853 11.6529 511489.0773 -13.8831 -14.0174
ENERGY: 4000 1562.6829 2256.1071 3141.3672 0.0000 -176947.6410 20798.1733 838.9466 0.0000 30283.4509 -118066.9131 294.4371 -148350.3639 -118020.0432 292.6663 -90.0716 -17.5615 507999.8794 -14.6373 -14.7915
ENERGY: 5000 1585.5011 2208.3005 3124.1004 0.0000 -175256.4783 20071.5401 777.9049 0.0000 30430.1626 -117058.9688 295.8635 -147489.1314 -117017.0056 297.0874 59.6170 -1.1348 506304.1555 -1.7113 -2.0188
TCL: Setting parameter constraintScaling to 5.0
TCL: Running for 5000 steps
ETITLE: TS BOND ANGLE DIHED IMPRP ELECT VDW BOUNDARY MISC KINETIC TOTAL TEMP POTENTIAL TOTAL3 TEMPAVG PRESSURE GPRESSURE VOLUME PRESSAVG GPRESSAVG
ENERGY: 5000 1585.5011 2208.3005 3124.1004 0.0000 -175256.4783 20071.5401 388.9524 0.0000 30428.1212 -117449.9626 295.8436 -147878.0838 -117408.2459 295.8436 -43.0586 -108.3504 506304.1555 -43.0586 -108.3504
ENERGY: 6000 1646.2835 2291.3630 3150.2663 0.0000 -175462.4425 20285.8502 646.2190 0.0000 30896.4758 -116545.9847 300.3973 -147442.4605 -116498.0836 299.1195 36.7994 11.5914 506353.7269 4.3824 4.6506
ENERGY: 7000 1650.5726 2221.5818 3149.8085 0.0000 -175436.1053 20192.3603 633.7345 0.0000 30837.8624 -116750.1852 299.8274 -147588.0475 -116702.1056 298.7335 27.4372 -1.6175 503558.5671 -7.8617 -7.7460
ENERGY: 8000 1583.7805 2269.3850 3162.7146 0.0000 -175009.4497 19867.0765 633.3832 0.0000 30729.6966 -116763.4134 298.7758 -147493.1099 -116724.8446 298.9772 -54.9236 -24.1094 503830.2133 3.8247 4.6555
ENERGY: 9000 1614.2123 2247.1131 3181.2903 0.0000 -175320.2687 20203.5534 652.9968 0.0000 30668.4548 -116752.6481 298.1803 -147421.1029 -116699.8799 299.5320 -139.7241 -66.7304 502997.4380 10.3457 9.8037
ENERGY: 10000 1575.8151 2371.2967 3150.3108 0.0000 -176076.2263 20404.8552 624.2072 0.0000 30797.2712 -117152.4700 299.4328 -147949.7413 -117111.2717 299.0429 -76.1872 8.9695 501907.9589 7.1146 7.2398
TCL: Setting parameter constraintScaling to 2.5
TCL: Running for 5000 steps
ETITLE: TS BOND ANGLE DIHED IMPRP ELECT VDW BOUNDARY MISC KINETIC TOTAL TEMP POTENTIAL TOTAL3 TEMPAVG PRESSURE GPRESSURE VOLUME PRESSAVG GPRESSAVG
ENERGY: 10000 1575.8151 2371.2967 3150.3108 0.0000 -176076.2263 20404.8552 312.1036 0.0000 30795.2141 -117466.6308 299.4128 -148261.8449 -117424.2312 299.4128 -48.9625 30.7307 501907.9589 -48.9625 30.7307
ENERGY: 11000 1596.9935 2313.1778 3170.8507 0.0000 -175818.5180 20149.3312 522.6475 0.0000 30964.2557 -117101.2616 301.0563 -148065.5173 -117055.6563 299.6555 -134.6368 -96.7812 501287.3011 -2.0317 -2.3621
ENERGY: 12000 1577.9344 2326.0685 3166.0190 0.0000 -175848.4989 20085.5565 509.8590 0.0000 30986.0246 -117197.0369 301.2680 -148183.0615 -117149.2978 299.4079 -70.4408 -50.8251 498983.7792 -9.2136 -9.6604
ENERGY: 13000 1576.5615 2354.9430 3166.7129 0.0000 -175044.2164 19825.8982 513.0632 0.0000 30875.7728 -116731.2647 300.1960 -147607.0376 -116690.9160 300.8581 -123.7413 -29.3124 502056.0208 13.2732 13.6313
ENERGY: 14000 1610.0591 2384.6250 3179.0572 0.0000 -175303.4447 19871.0803 508.6651 0.0000 30676.0676 -117073.8905 298.2543 -147749.9581 -117019.5679 300.5019 -76.4310 -73.8858 501021.3016 -1.6871 -2.0500
ENERGY: 15000 1650.3758 2322.1790 3179.1546 0.0000 -175602.7286 19860.3066 521.1514 0.0000 30994.0130 -117075.5483 301.3456 -148069.5613 -117031.9184 300.2813 -129.4655 -105.2514 498995.7975 -12.5379 -12.5365
TCL: Setting parameter constraintScaling to 1.25
TCL: Running for 5000 steps
ETITLE: TS BOND ANGLE DIHED IMPRP ELECT VDW BOUNDARY MISC KINETIC TOTAL TEMP POTENTIAL TOTAL3 TEMPAVG PRESSURE GPRESSURE VOLUME PRESSAVG GPRESSAVG
ENERGY: 15000 1650.3758 2322.1790 3179.1546 0.0000 -175602.7286 19860.3066 260.5757 0.0000 30991.9864 -117338.1506 301.3259 -148330.1370 -117295.1736 301.3259 -187.0416 -158.3323 498995.7975 -187.0416 -158.3323
ENERGY: 16000 1616.7121 2390.7048 3200.0358 0.0000 -175546.9808 19978.6130 397.0234 0.0000 30684.0370 -117279.8547 298.3318 -147963.8917 -117230.3607 299.1074 -33.0751 76.6596 499965.0839 -0.1211 -0.0923
ENERGY: 17000 1613.6883 2337.5016 3191.6053 0.0000 -175808.2641 20062.2548 413.4885 0.0000 30921.6598 -117268.0659 300.6422 -148189.7257 -117214.4228 300.4026 34.5798 -23.6026 499318.6546 1.2521 1.0363
ENERGY: 18000 1633.2488 2349.5334 3199.2506 0.0000 -175757.5124 19862.9095 402.2364 0.0000 30859.1297 -117451.2040 300.0342 -148310.3337 -117407.2346 299.1160 -102.0575 -33.5651 500150.5879 1.0520 1.5762
ENERGY: 19000 1620.5814 2378.9751 3213.8233 0.0000 -175841.2622 20076.9309 403.0953 0.0000 30999.5993 -117148.2569 301.4000 -148147.8562 -117117.4721 300.0518 -81.3240 27.6466 498228.6571 2.0022 1.6974
ENERGY: 20000 1632.8481 2352.1295 3182.7919 0.0000 -175676.5141 20203.2532 405.3216 0.0000 30893.5218 -117006.6480 300.3686 -147900.1698 -116970.0123 300.6603 -9.4466 -36.0674 498714.0632 -0.9791 -1.2101
TCL: Setting parameter constraintScaling to 0.625
TCL: Running for 5000 steps
ETITLE: TS BOND ANGLE DIHED IMPRP ELECT VDW BOUNDARY MISC KINETIC TOTAL TEMP POTENTIAL TOTAL3 TEMPAVG PRESSURE GPRESSURE VOLUME PRESSAVG GPRESSAVG
ENERGY: 20000 1632.8481 2352.1295 3182.7919 0.0000 -175676.5141 20203.2532 202.6608 0.0000 30891.4739 -117211.3567 300.3487 -148102.8306 -117168.1522 300.3487 -5.0042 -36.4593 498714.0632 -5.0042 -36.4593
ENERGY: 21000 1634.5862 2415.4901 3186.9301 0.0000 -175767.1978 20158.9942 320.3434 0.0000 30615.7868 -117435.0670 297.6683 -148050.8539 -117390.1471 299.0731 -63.3862 -61.4256 499846.0179 3.3762 3.5645
ENERGY: 22000 1601.4846 2390.0308 3215.6857 0.0000 -175407.1587 19923.6876 326.8897 0.0000 30709.0433 -117240.3370 298.5750 -147949.3804 -117192.9449 300.0038 7.6666 5.2381 498544.6389 0.7552 0.8722
ENERGY: 23000 1608.2236 2348.2016 3219.4321 0.0000 -175750.2142 19882.6573 337.5821 0.0000 30718.5743 -117635.5432 298.6676 -148354.1175 -117591.6210 298.1586 84.6502 8.7136 496733.0711 -4.1913 -3.9209
ENERGY: 24000 1635.0609 2383.4738 3212.9529 0.0000 -175865.4046 20101.7022 309.4383 0.0000 30676.0566 -117546.7199 298.2542 -148222.7765 -117512.9126 299.8557 -122.9949 -19.4735 496254.5296 0.6050 0.3302
ENERGY: 25000 1607.0793 2372.0879 3208.7391 0.0000 -175969.8354 20096.0832 317.9025 0.0000 30706.1955 -117661.7479 298.5473 -148367.9435 -117619.7996 298.6436 36.2106 25.4567 497188.3447 -1.7964 -1.3209
TCL: Setting parameter constraintScaling to 0.3125
TCL: Running for 5000 steps
ETITLE: TS BOND ANGLE DIHED IMPRP ELECT VDW BOUNDARY MISC KINETIC TOTAL TEMP POTENTIAL TOTAL3 TEMPAVG PRESSURE GPRESSURE VOLUME PRESSAVG GPRESSAVG
ENERGY: 25000 1607.0793 2372.0879 3208.7391 0.0000 -175969.8354 20096.0832 158.9512 0.0000 30704.1524 -117822.7423 298.5274 -148526.8947 -117781.4893 298.5274 -25.6133 -30.6268 497188.3447 -25.6133 -30.6268
ENERGY: 26000 1609.6422 2364.7120 3249.9018 0.0000 -175817.8768 19888.9715 261.7002 0.0000 30735.0314 -117707.9177 298.8276 -148442.9491 -117670.3476 299.0376 -132.6544 -34.3895 496485.8314 -1.9070 -1.8493
ENERGY: 27000 1596.1544 2418.4494 3215.6145 0.0000 -175929.5634 20176.9159 258.3971 0.0000 30910.0086 -117354.0234 300.5289 -148264.0320 -117303.7194 299.2012 -2.0156 22.7323 499159.7514 8.0085 8.1009
ENERGY: 28000 1619.4531 2406.6038 3200.9844 0.0000 -176166.3630 20257.3710 261.4734 0.0000 30781.3060 -117639.1713 299.2775 -148420.4773 -117589.7023 299.9081 -25.5823 -4.4140 495912.3852 -7.2767 -7.3098
ENERGY: 29000 1603.6564 2494.1938 3250.1984 0.0000 -176221.2915 20066.8574 249.7872 0.0000 30778.5394 -117778.0589 299.2507 -148556.5983 -117721.6561 298.7391 5.8570 11.4174 496204.2097 13.6048 13.2489
ENERGY: 30000 1666.6199 2398.0858 3246.2537 0.0000 -176001.4557 20019.4024 269.0601 0.0000 30904.0140 -117498.0197 300.4706 -148402.0337 -117463.9057 299.4176 -74.7633 -45.0837 496342.7928 4.0131 4.6329
TCL: Setting parameter constraintScaling to 0.15625
TCL: Running for 5000 steps
ETITLE: TS BOND ANGLE DIHED IMPRP ELECT VDW BOUNDARY MISC KINETIC TOTAL TEMP POTENTIAL TOTAL3 TEMPAVG PRESSURE GPRESSURE VOLUME PRESSAVG GPRESSAVG
ENERGY: 30000 1666.6199 2398.0858 3246.2537 0.0000 -176001.4557 20019.4024 134.5301 0.0000 30901.9761 -117634.5877 300.4508 -148536.5638 -117592.7007 300.4508 -123.6300 -86.5798 496342.7928 -123.6300 -86.5798
ENERGY: 31000 1641.9477 2384.0655 3221.0052 0.0000 -176110.1786 20012.6390 178.4769 0.0000 30775.1319 -117896.9124 299.2175 -148672.0443 -117850.4747 298.3307 -72.3549 -80.3560 496431.8607 7.3958 7.4976
ENERGY: 32000 1615.9232 2378.9573 3202.1263 0.0000 -176334.1250 20287.0825 183.9969 0.0000 30597.6178 -118068.4211 297.4916 -148666.0388 -118027.8035 298.5701 31.5300 36.4794 495631.1460 8.5765 8.7137
ENERGY: 33000 1604.2217 2396.3119 3231.6780 0.0000 -175796.2762 19833.0631 189.1379 0.0000 30812.9066 -117728.9570 299.5848 -148541.8636 -117685.8443 299.2850 -205.9252 -112.6508 496942.1053 2.4775 2.0556
ENERGY: 34000 1672.5151 2441.5194 3222.9291 0.0000 -176228.9389 20121.2714 201.0454 0.0000 30914.7688 -117654.8896 300.5752 -148569.6585 -117605.8939 299.1581 -107.5739 -4.7417 496628.1184 -5.2115 -5.8897
ENERGY: 35000 1634.8710 2383.6768 3227.1983 0.0000 -175965.3117 20027.2991 206.8473 0.0000 30794.2057 -117691.2135 299.4030 -148485.4192 -117654.2241 299.5556 71.5521 102.3813 497054.5408 11.7675 12.0062
TCL: Setting parameter constraintScaling to 0.078125
TCL: Running for 5000 steps
ETITLE: TS BOND ANGLE DIHED IMPRP ELECT VDW BOUNDARY MISC KINETIC TOTAL TEMP POTENTIAL TOTAL3 TEMPAVG PRESSURE GPRESSURE VOLUME PRESSAVG GPRESSAVG
ENERGY: 35000 1634.8710 2383.6768 3227.1983 0.0000 -175965.3117 20027.2991 103.4237 0.0000 30792.1775 -117796.6654 299.3833 -148588.8429 -117756.0587 299.3833 39.9563 75.8857 497054.5408 39.9563 75.8857
ENERGY: 36000 1619.4719 2346.1313 3240.7112 0.0000 -176108.0127 20200.5401 140.2597 0.0000 30648.0377 -117912.8609 297.9818 -148560.8986 -117869.5307 299.6439 -98.0049 -69.4893 497291.3593 8.4449 8.7129
ENERGY: 37000 1645.1025 2469.4410 3237.9060 0.0000 -175726.4593 20092.5632 142.0558 0.0000 30577.5193 -117561.8716 297.2962 -148139.3909 -117525.0030 300.0665 -127.0450 -31.6346 496529.1960 -6.4019 -5.8244
ENERGY: 38000 1597.6361 2461.1773 3195.7675 0.0000 -175710.6840 19909.4019 157.4940 0.0000 30706.5904 -117682.6169 298.5511 -148389.2072 -117634.8360 300.2730 123.4353 70.1789 496702.5315 9.1301 9.1935
ENERGY: 39000 1673.7148 2405.4921 3189.4668 0.0000 -175787.0179 19974.1659 154.6482 0.0000 31009.9174 -117379.6126 301.5003 -148389.5300 -117322.0280 300.0207 44.0678 49.1711 497525.5882 7.4459 7.4413
ENERGY: 40000 1579.5200 2448.0393 3188.4542 0.0000 -175958.6122 20069.4729 154.0971 0.0000 30941.8525 -117577.1763 300.8385 -148519.0287 -117533.6873 300.2771 18.0925 3.2690 496709.1439 -8.4076 -8.6470
TCL: Setting parameter constraintScaling to 0.0390625
TCL: Running for 5000 steps
ETITLE: TS BOND ANGLE DIHED IMPRP ELECT VDW BOUNDARY MISC KINETIC TOTAL TEMP POTENTIAL TOTAL3 TEMPAVG PRESSURE GPRESSURE VOLUME PRESSAVG GPRESSAVG
ENERGY: 40000 1579.5200 2448.0393 3188.4542 0.0000 -175958.6122 20069.4729 77.0486 0.0000 30939.7808 -117656.2965 300.8184 -148596.0773 -117610.0382 300.8184 17.3374 0.1076 496709.1439 17.3374 0.1076
ENERGY: 41000 1638.3487 2380.7189 3236.9207 0.0000 -176542.5502 20236.2949 109.0882 0.0000 30683.6091 -118257.5697 298.3277 -148941.1788 -118209.8956 297.4479 -89.9901 21.3703 496698.6904 6.2981 6.1172
ENERGY: 42000 1611.9474 2428.1392 3209.5552 0.0000 -176170.2932 20108.0573 126.5024 0.0000 30738.0092 -117948.0825 298.8566 -148686.0917 -117900.6076 298.5872 -67.9916 -30.1800 496890.4236 1.9745 2.3048
ENERGY: 43000 1638.0662 2459.6709 3220.6863 0.0000 -176122.0080 20186.3767 122.5977 0.0000 30711.2284 -117783.3819 298.5962 -148494.6102 -117741.1778 299.2378 -71.3560 -42.6749 497304.8909 -0.6184 -0.5942
ENERGY: 44000 1582.2423 2384.8963 3229.8858 0.0000 -176301.7768 20187.8862 117.2269 0.0000 30732.8348 -118066.8046 298.8063 -148799.6394 -118015.5973 298.9596 87.2294 114.3580 497000.6108 -0.6309 -0.4752
ENERGY: 45000 1632.7059 2344.8792 3238.0320 0.0000 -176012.2720 20105.9066 121.1741 0.0000 30720.9298 -117848.6444 298.6905 -148569.5742 -117809.4466 297.9247 33.9089 94.3096 496572.2966 2.2689 2.3210
TCL: Setting parameter constraintScaling to 0.01953125
TCL: Running for 5000 steps
ETITLE: TS BOND ANGLE DIHED IMPRP ELECT VDW BOUNDARY MISC KINETIC TOTAL TEMP POTENTIAL TOTAL3 TEMPAVG PRESSURE GPRESSURE VOLUME PRESSAVG GPRESSAVG
ENERGY: 45000 1632.7059 2344.8792 3238.0320 0.0000 -176012.2720 20105.9066 60.5870 0.0000 30718.8983 -117911.2630 298.6708 -148630.1613 -117868.6807 298.6708 30.0957 87.0249 496572.2966 30.0957 87.0249
ENERGY: 46000 1610.5615 2391.1745 3253.6813 0.0000 -175925.1426 19786.4683 79.2064 0.0000 30652.2580 -118151.7926 298.0229 -148804.0506 -118109.6929 298.1586 32.3954 24.7461 495770.0513 -13.8815 -13.9050
ENERGY: 47000 1604.1106 2373.0388 3222.2646 0.0000 -176271.9972 20220.9614 79.4120 0.0000 30716.8923 -118055.3175 298.6513 -148772.2097 -118004.4061 298.2728 -97.1765 -42.4788 497261.8225 3.4547 3.3415
ENERGY: 48000 1655.9860 2319.2358 3187.9681 0.0000 -175668.9598 19869.9098 81.2666 0.0000 30671.3066 -117883.2869 298.2081 -148554.5935 -117850.4304 298.5037 17.6265 28.1300 496713.1061 -8.5459 -8.5805
ENERGY: 49000 1590.9096 2415.8780 3202.7432 0.0000 -175475.8230 19730.9500 84.0078 0.0000 30804.2476 -117647.0868 299.5006 -148451.3344 -117598.1075 299.3158 -129.2057 -40.4875 495787.2166 -1.0555 -1.0124
ENERGY: 50000 1651.1347 2351.2718 3185.0609 0.0000 -176037.8324 20175.2004 84.1759 0.0000 30709.7745 -117881.2143 298.5821 -148590.9887 -117833.2620 298.2542 44.8063 49.6825 496853.8514 15.1083 15.4979
TCL: Setting parameter constraintScaling to 0
TCL: Running for 5000 steps
ETITLE: TS BOND ANGLE DIHED IMPRP ELECT VDW BOUNDARY MISC KINETIC TOTAL TEMP POTENTIAL TOTAL3 TEMPAVG PRESSURE GPRESSURE VOLUME PRESSAVG GPRESSAVG
ENERGY: 50000 1651.1347 2351.2718 3185.0609 0.0000 -176037.8324 20175.2004 0.0000 0.0000 30707.7312 -117967.4334 298.5622 -148675.1646 -117929.4510 298.5622 36.8564 40.2553 496853.8514 36.8564 40.2553
ENERGY: 51000 1617.7665 2376.8333 3189.1622 0.0000 -176234.2979 20046.3002 0.0000 0.0000 31047.1950 -117957.0408 301.8627 -149004.2357 -117899.1822 299.1852 -15.2825 29.3831 495998.1083 -7.8910 -8.1203
ENERGY: 52000 1578.6399 2465.0407 3214.3078 0.0000 -176187.0239 20005.9806 0.0000 0.0000 30772.4502 -118150.6047 299.1914 -148923.0550 -118108.7464 298.7189 -81.2180 -13.4555 496065.4668 -5.6388 -5.6144
ENERGY: 53000 1647.2545 2428.0999 3194.6407 0.0000 -175969.4901 19981.8227 0.0000 0.0000 30902.3911 -117815.2813 300.4548 -148717.6723 -117762.9480 299.4350 2.9132 45.7261 496391.8553 3.2999 3.0060
ENERGY: 54000 1664.6845 2381.1978 3201.7846 0.0000 -175624.4313 19902.8739 0.0000 0.0000 31073.9659 -117399.9246 302.1230 -148473.8905 -117355.1393 300.1218 8.1517 35.5917 496236.1055 -2.1874 -2.2994
ENERGY: 55000 1707.9726 2445.9293 3228.7085 0.0000 -176269.9847 20234.1864 0.0000 0.0000 30988.2489 -117664.9390 301.2896 -148653.1879 -117608.4531 300.0627 -74.2093 -27.2684 494987.0062 4.6486 5.0309
