Info: SIMULATION PARAMETERS:
Info: TIMESTEP               1
Info: NUMBER OF STEPS        0
Info: STEPS PER CYCLE        10
Info: PERIODIC CELL BASIS 1  72.449 0 0
Info: PERIODIC CELL BASIS 2  0 93.247 0
Info: PERIODIC CELL BASIS 3  0 0 79.185
Info: PERIODIC CELL CENTER   -0.248 -0.156 -0.047
Info: WRAPPING WATERS AROUND PERIODIC BOUNDARIES ON OUTPUT.
Info: WRAPPING ALL CLUSTERS AROUND PERIODIC BOUNDARIES ON OUTPUT.
Info: FIRST LDB TIMESTEP     50
Info: LAST LDB TIMESTEP     -1
Info: HOM BACKGROUND SCALING 1
Info: PME BACKGROUND SCALING 1
Info: MIN ATOMS PER PATCH    40
Info: VELOCITY FILE          ../replicas/rep69/equilibration/eq1.vel
Info: CENTER OF MASS MOVING INITIALLY? NO
Info: DIELECTRIC             1
Info: EXCLUDE                SCALED ONE-FOUR
Info: 1-4 ELECTROSTATICS SCALED BY 0.833333
Info: MODIFIED 1-4 VDW PARAMETERS WILL BE USED
Info: DCD FILENAME           ../replicas/rep69/equilibration/eq2.dcd
Info: DCD FREQUENCY          5000
Info: DCD FIRST STEP         5000
Info: DCD FILE WILL CONTAIN UNIT CELL DATA
Info: XST FILENAME           ../replicas/rep69/equilibration/eq2.xst
Info: XST FREQUENCY          5000
Info: NO VELOCITY DCD OUTPUT
Info: NO FORCE DCD OUTPUT
Info: OUTPUT FILENAME        ../replicas/rep69/equilibration/eq2
Info: RESTART FILENAME       ../replicas/rep69/equilibration/eq2.restart
Info: RESTART FREQUENCY      5000
Info: BINARY RESTART FILES WILL BE USED
Info: SWITCHING ACTIVE
Info: SWITCHING ON           10
Info: SWITCHING OFF          12
Info: PAIRLIST DISTANCE      13.5
Info: PAIRLIST SHRINK RATE   0.01
Info: PAIRLIST GROW RATE     0.01
Info: PAIRLIST TRIGGER       0.3
Info: PAIRLISTS PER CYCLE    2
Info: PAIRLISTS ENABLED
Info: MARGIN                 0.48
Info: HYDROGEN GROUP CUTOFF  2.5
Info: PATCH DIMENSION        16.48
Info: ENERGY OUTPUT STEPS    500
Info: CROSSTERM ENERGY INCLUDED IN DIHEDRAL
Info: TIMING OUTPUT STEPS    5000
Info: PRESSURE OUTPUT STEPS  500
Info: HARMONIC CONSTRAINTS ACTIVE
Info: HARMONIC CONS EXP      2
Info: HARMONIC CONS SCALING  10
Info: LANGEVIN DYNAMICS ACTIVE
Info: LANGEVIN TEMPERATURE   300
Info: LANGEVIN USING BBK INTEGRATOR
Info: LANGEVIN DAMPING COEFFICIENT IS 5 INVERSE PS
Info: LANGEVIN DYNAMICS NOT APPLIED TO HYDROGENS
Info: BERENDSEN PRESSURE COUPLING ACTIVE
Info:     TARGET PRESSURE IS 1 BAR
Info:     COMPRESSIBILITY ESTIMATE IS 4.57e-05 BAR^(-1)
Info:     RELAXATION TIME IS 100 FS
Info:     APPLIED EVERY 2 STEPS
Info:     PRESSURE CONTROL IS GROUP-BASED
Info:       CELL FLUCTUATION IS ISOTROPIC
Info: PARTICLE MESH EWALD (PME) ACTIVE
Info: PME TOLERANCE               1e-06
Info: PME EWALD COEFFICIENT       0.257952
Info: PME INTERPOLATION ORDER     4
Info: PME GRID DIMENSIONS         80 96 80
Info: PME MAXIMUM GRID SPACING    1
Info: FULL ELECTROSTATIC EVALUATION FREQUENCY      2
Info: USING VERLET I (r-RESPA) MTS SCHEME.
Info: C1 SPLITTING OF LONG RANGE ELECTROSTATICS
Info: PLACING ATOMS IN PATCHES BY HYDROGEN GROUPS
Info: RIGID BONDS TO HYDROGEN : WATER
Info:         ERROR TOLERANCE : 1e-05
Info:          MAX ITERATIONS : 100
Info: RIGID WATER USING SETTLE ALGORITHM
Info: RANDOM NUMBER SEED     1503720379
Info: USE HYDROGEN BONDS?    NO
Info: Using AMBER format force field!
Info: AMBER PARM FILE        ../build/complex.top
Info: COORDINATE PDB         ../replicas/rep69/equilibration/eq1.coor
Info: Exclusions in PARM file will be ignored!
Info: SCNB (VDW SCALING)     2
Info: USING ARITHMETIC MEAN TO COMBINE L-J SIGMA PARAMETERS
Info: SUMMARY OF PARAMETERS:
Info: 71 BONDS
Info: 145 ANGLES
Info: 76 DIHEDRAL
Info: 0 IMPROPER
Info: 0 CROSSTERM
Info: 0 VDW
Info: 190 VDW_PAIRS
Info: 0 NBTHOLE_PAIRS
Info: STRUCTURE SUMMARY:
Info: 49394 ATOMS
Info: 49448 BONDS
Info: 8698 ANGLES
Info: 18780 DIHEDRALS
Info: 0 IMPROPERS
Info: 0 CROSSTERMS
Info: 0 EXCLUSIONS
Info: 2336 CONSTRAINTS
Info: 44667 RIGID BONDS
Info: 103515 DEGREES OF FREEDOM
Info: 17225 HYDROGEN GROUPS
Info: 4 ATOMS IN LARGEST HYDROGEN GROUP
Info: 17225 MIGRATION GROUPS
Info: 4 ATOMS IN LARGEST MIGRATION GROUP
Info: TOTAL MASS = 301478 amu
Info: TOTAL CHARGE = 1.00115e-05 e
Info: MASS DENSITY = 0.935846 g/cm^3
Info: ATOM DENSITY = 0.0923345 atoms/A^3
Info: ADDED 70656 IMPLICIT EXCLUSIONS
Info: NONBONDED TABLE R-SQUARED SPACING: 0.0625
Info: NONBONDED TABLE SIZE: 769 POINTS
Info: REMOVING COM VELOCITY -0.00235927 0.013216 0.0063866
TCL: Running for 5000 steps
ETITLE: TS BOND ANGLE DIHED IMPRP ELECT VDW BOUNDARY MISC KINETIC TOTAL TEMP POTENTIAL TOTAL3 TEMPAVG PRESSURE GPRESSURE VOLUME PRESSAVG GPRESSAVG
ENERGY: 0 385.8473 1230.4494 2899.4675 0.0000 -212863.1984 29621.0342 0.0000 0.0000 10048.2738 -168678.1262 97.6964 -178726.4001 -168668.5392 97.6964 -2318.6331 -2416.7068 534946.2959 -2318.6331 -2416.7068
ENERGY: 1000 1289.8953 1955.7397 3090.9494 0.0000 -193928.9536 26582.9905 725.7247 0.0000 23990.2809 -136293.3731 233.2504 -160283.6540 -136273.8209 217.6897 -134.4851 -66.3555 521377.5563 -30.2144 -30.5061
ENERGY: 2000 1497.0955 2063.5890 3136.5186 0.0000 -184442.8695 23604.0665 822.6914 0.0000 27932.3185 -125386.5899 271.5777 -153318.9084 -125341.1860 264.2122 -45.8765 -29.0199 515092.3630 -25.5740 -25.4266
ENERGY: 3000 1580.0335 2263.8251 3163.6930 0.0000 -179656.9666 21788.0620 775.0097 0.0000 29746.5889 -120339.7545 289.2173 -150086.3434 -120299.2295 284.6704 -85.1264 -12.7968 509750.2798 -27.2626 -27.1273
ENERGY: 4000 1534.9652 2239.2498 3143.3945 0.0000 -177269.3869 21004.3592 814.0678 0.0000 30168.8926 -118364.4577 293.3232 -148533.3503 -118325.9602 292.7179 -111.8024 -29.7384 507661.5841 -1.8934 -1.9103
ENERGY: 5000 1509.7376 2290.2481 3145.9747 0.0000 -176505.3969 20573.8475 811.8485 0.0000 30623.4950 -117550.2455 297.7432 -148173.7405 -117505.6891 296.6869 23.0535 -23.6216 504110.1079 -24.0459 -23.4686
TCL: Setting parameter constraintScaling to 5.0
TCL: Running for 5000 steps
ETITLE: TS BOND ANGLE DIHED IMPRP ELECT VDW BOUNDARY MISC KINETIC TOTAL TEMP POTENTIAL TOTAL3 TEMPAVG PRESSURE GPRESSURE VOLUME PRESSAVG GPRESSAVG
ENERGY: 5000 1509.7376 2290.2481 3145.9747 0.0000 -176505.3969 20573.8475 405.9242 0.0000 30621.4470 -117958.2177 297.7233 -148579.6648 -117914.9898 297.7233 28.7108 -11.3902 504110.1079 28.7108 -11.3902
ENERGY: 6000 1622.4658 2253.1461 3126.3861 0.0000 -175564.5359 20114.7480 643.0047 0.0000 30549.2260 -117255.5592 297.0211 -147804.7852 -117222.7074 298.0949 24.3284 -38.6515 502606.0931 -14.3065 -14.6983
ENERGY: 7000 1611.1338 2277.7621 3148.2011 0.0000 -175725.4358 20272.9467 659.9200 0.0000 30602.0359 -117153.4361 297.5346 -147755.4720 -117113.0009 298.5515 -35.0364 36.0940 503688.2475 6.0403 5.6958
ENERGY: 8000 1594.6269 2262.4832 3167.2940 0.0000 -175985.5368 20427.9686 639.3798 0.0000 30920.2773 -116973.5071 300.6287 -147893.7843 -116921.6269 298.0326 -17.1300 3.1764 500769.2350 -14.3835 -14.4773
ENERGY: 9000 1555.8506 2309.6139 3173.9426 0.0000 -175374.2543 20022.5872 663.4856 0.0000 31005.6100 -116643.1643 301.4584 -147648.7744 -116602.0361 300.4842 4.7392 19.7813 500275.2906 -9.5522 -9.8446
ENERGY: 10000 1610.6896 2307.7548 3144.7934 0.0000 -175572.2041 20217.5705 640.8998 0.0000 30676.9362 -116973.5598 298.2628 -147650.4960 -116932.4625 299.4511 4.5419 -11.3749 499998.0367 -7.2671 -7.6205
TCL: Setting parameter constraintScaling to 2.5
TCL: Running for 5000 steps
ETITLE: TS BOND ANGLE DIHED IMPRP ELECT VDW BOUNDARY MISC KINETIC TOTAL TEMP POTENTIAL TOTAL3 TEMPAVG PRESSURE GPRESSURE VOLUME PRESSAVG GPRESSAVG
ENERGY: 10000 1610.6896 2307.7548 3144.7934 0.0000 -175572.2041 20217.5705 320.4499 0.0000 30674.8770 -117296.0689 298.2428 -147970.9459 -117253.2300 298.2428 3.9076 -8.7400 499998.0367 3.9076 -8.7400
ENERGY: 11000 1642.0905 2381.1346 3194.1340 0.0000 -175362.1944 19890.9220 500.9001 0.0000 30850.4442 -116902.5690 299.9498 -147753.0132 -116857.1431 299.2804 -11.9309 32.1871 501651.1364 3.6376 3.6569
ENERGY: 12000 1602.6030 2405.3657 3173.8317 0.0000 -175349.0941 19953.0556 510.9071 0.0000 31115.1840 -116588.1472 302.5237 -147703.3312 -116540.7888 300.6228 -18.7819 -21.7960 500353.7362 0.7200 1.1743
ENERGY: 13000 1574.0666 2384.4360 3173.5354 0.0000 -175511.6266 20184.0907 515.0505 0.0000 30898.7225 -116781.7249 300.4192 -147680.4474 -116738.5271 300.4320 -56.6316 6.9235 501453.9308 13.1230 13.4494
ENERGY: 14000 1649.1954 2347.4898 3181.5140 0.0000 -175227.7628 19993.1204 510.9449 0.0000 30659.3324 -116886.1658 298.0916 -147545.4982 -116843.5633 300.6706 -119.7716 -8.1145 501541.8758 4.3961 5.0578
ENERGY: 15000 1561.1101 2317.9017 3180.4777 0.0000 -175671.6056 20106.2144 485.9342 0.0000 30891.5971 -117128.3703 300.3499 -148019.9675 -117083.9920 299.7563 27.5878 -2.3291 498884.3615 -7.2922 -6.9298
TCL: Setting parameter constraintScaling to 1.25
TCL: Running for 5000 steps
ETITLE: TS BOND ANGLE DIHED IMPRP ELECT VDW BOUNDARY MISC KINETIC TOTAL TEMP POTENTIAL TOTAL3 TEMPAVG PRESSURE GPRESSURE VOLUME PRESSAVG GPRESSAVG
ENERGY: 15000 1561.1101 2317.9017 3180.4777 0.0000 -175671.6056 20106.2144 242.9671 0.0000 30889.5451 -117373.3895 300.3299 -148262.9346 -117326.6041 300.3299 18.3715 -9.1412 498884.3615 18.3715 -9.1412
ENERGY: 16000 1636.5713 2376.0468 3196.9877 0.0000 -175353.6696 19959.8180 392.1697 0.0000 30527.1273 -117264.9488 296.8062 -147792.0762 -117219.6243 300.1525 -28.8692 3.3403 499437.8051 11.7110 11.9150
ENERGY: 17000 1673.0181 2439.3862 3162.2173 0.0000 -175962.4733 20176.8222 404.9785 0.0000 30890.2089 -117215.8422 300.3364 -148106.0512 -117169.9772 300.8585 55.0021 20.2805 496568.7372 -19.4932 -19.2277
ENERGY: 18000 1612.7873 2420.7090 3177.3895 0.0000 -175451.5291 20004.7143 399.3057 0.0000 30839.7882 -116996.8351 299.8462 -147836.6232 -116953.1145 300.4510 -22.4586 -7.7095 499095.8326 7.1355 7.0685
ENERGY: 19000 1628.8647 2388.2464 3210.3832 0.0000 -175777.5133 20029.9171 404.0693 0.0000 30957.6747 -117158.3579 300.9923 -148116.0326 -117105.2961 299.5280 -196.6921 -154.9508 499117.6467 0.0159 0.4020
ENERGY: 20000 1649.6868 2331.0943 3163.7917 0.0000 -176031.4596 20138.3991 395.2458 0.0000 30959.0103 -117394.2317 301.0053 -148353.2420 -117348.9828 299.0119 -70.2445 14.7333 498515.8970 -3.6031 -3.7786
TCL: Setting parameter constraintScaling to 0.625
TCL: Running for 5000 steps
ETITLE: TS BOND ANGLE DIHED IMPRP ELECT VDW BOUNDARY MISC KINETIC TOTAL TEMP POTENTIAL TOTAL3 TEMPAVG PRESSURE GPRESSURE VOLUME PRESSAVG GPRESSAVG
ENERGY: 20000 1649.6868 2331.0943 3163.7917 0.0000 -176031.4596 20138.3991 197.6229 0.0000 30956.9633 -117593.9016 300.9854 -148550.8649 -117549.1914 300.9854 -115.6429 -32.7725 498515.8970 -115.6429 -32.7725
ENERGY: 21000 1600.9330 2359.0113 3197.8220 0.0000 -175699.2915 19891.6254 304.9487 0.0000 30520.5107 -117824.4402 296.7419 -148344.9510 -117783.9112 298.7815 -39.5513 13.9812 498136.8013 7.5433 6.8420
ENERGY: 22000 1617.9862 2372.3780 3204.4691 0.0000 -175733.0192 20045.0870 304.3681 0.0000 30630.1394 -117558.5912 297.8078 -148188.7307 -117505.6596 299.3322 -34.8486 54.0968 497678.4073 3.6562 3.6481
ENERGY: 23000 1691.2201 2356.5489 3188.6541 0.0000 -175712.4819 20035.7355 307.0323 0.0000 30909.9245 -117223.3665 300.5281 -148133.2909 -117172.7383 299.6586 -2.5592 6.9054 497261.8276 -3.2822 -3.3490
ENERGY: 24000 1577.2171 2372.0816 3200.7419 0.0000 -175704.9397 20033.4971 338.5045 0.0000 30877.2384 -117305.6592 300.2103 -148182.8976 -117257.8861 300.0610 45.5081 56.1619 498739.4940 2.1148 2.4112
ENERGY: 25000 1656.0615 2401.4966 3212.0615 0.0000 -175755.0409 19898.6626 328.0021 0.0000 30934.2535 -117324.5030 300.7646 -148258.7566 -117283.8840 299.7942 -24.0491 -66.3014 498342.6564 2.0118 1.6647
TCL: Setting parameter constraintScaling to 0.3125
TCL: Running for 5000 steps
ETITLE: TS BOND ANGLE DIHED IMPRP ELECT VDW BOUNDARY MISC KINETIC TOTAL TEMP POTENTIAL TOTAL3 TEMPAVG PRESSURE GPRESSURE VOLUME PRESSAVG GPRESSAVG
ENERGY: 25000 1656.0615 2401.4966 3212.0615 0.0000 -175755.0409 19898.6626 164.0010 0.0000 30932.2067 -117490.5509 300.7447 -148422.7576 -117448.4059 300.7447 -54.1329 -95.8418 498342.6564 -54.1329 -95.8418
ENERGY: 26000 1636.7176 2370.2957 3185.3594 0.0000 -176130.8273 20049.7815 271.5836 0.0000 30732.8610 -117884.2284 298.8065 -148617.0894 -117842.1035 297.9783 44.7946 9.3093 497490.7572 3.4617 3.0927
ENERGY: 27000 1660.7299 2423.2831 3207.2825 0.0000 -175983.5310 20196.0788 259.2563 0.0000 30873.4699 -117363.4305 300.1736 -148236.9004 -117314.2894 299.5539 20.9419 -47.7107 497255.7678 6.6234 6.2260
ENERGY: 28000 1629.7058 2449.8182 3214.6385 0.0000 -176104.5267 20161.8695 241.6192 0.0000 31220.3148 -117186.5607 303.5459 -148406.8755 -117140.4168 300.9048 13.3531 61.2214 496995.1415 -5.2470 -4.3167
ENERGY: 29000 1687.1609 2365.7570 3212.7376 0.0000 -176034.7445 20165.1290 263.4695 0.0000 31085.9240 -117254.5665 302.2393 -148340.4905 -117202.7602 300.0262 -98.0338 -76.0194 497791.9573 -1.8262 -1.9901
ENERGY: 30000 1604.6926 2439.0515 3198.0090 0.0000 -175300.5347 19934.0535 259.9991 0.0000 30817.8305 -117046.8985 299.6327 -147864.7290 -117004.1417 300.6182 -32.0052 4.4335 498632.3065 1.4617 1.2672
TCL: Setting parameter constraintScaling to 0.15625
TCL: Running for 5000 steps
ETITLE: TS BOND ANGLE DIHED IMPRP ELECT VDW BOUNDARY MISC KINETIC TOTAL TEMP POTENTIAL TOTAL3 TEMPAVG PRESSURE GPRESSURE VOLUME PRESSAVG GPRESSAVG
ENERGY: 30000 1604.6926 2439.0515 3198.0090 0.0000 -175300.5347 19934.0535 129.9995 0.0000 30815.7796 -117178.9489 299.6127 -147994.7286 -117135.8363 299.6127 -53.9173 -16.4289 498632.3065 -53.9173 -16.4289
ENERGY: 31000 1612.5873 2467.2266 3215.6001 0.0000 -175761.4521 20131.3888 185.9593 0.0000 30772.6549 -117376.0351 299.1934 -148148.6900 -117335.1697 300.6167 95.8416 120.1149 498123.0153 2.4214 1.8750
ENERGY: 32000 1654.1436 2444.0029 3228.8700 0.0000 -175835.8425 20133.7480 211.4714 0.0000 30821.4326 -117342.1740 299.6677 -148163.6067 -117295.3027 299.7486 -89.6635 -11.5687 497567.0604 -8.4084 -8.5211
ENERGY: 33000 1668.7677 2459.2149 3231.1098 0.0000 -175901.5146 20086.6071 197.6406 0.0000 30792.8665 -117465.3080 299.3899 -148258.1746 -117435.5782 300.3639 -85.1052 21.8116 498086.1830 -0.2477 -0.5213
ENERGY: 34000 1611.3385 2404.9412 3215.9690 0.0000 -176182.0655 20368.4068 202.0848 0.0000 30642.2064 -117737.1188 297.9251 -148379.3252 -117696.9753 298.2497 51.6829 35.2340 498164.4378 5.4673 5.2633
ENERGY: 35000 1627.3216 2376.8258 3243.4764 0.0000 -176013.9178 19937.6776 205.1078 0.0000 30750.0901 -117873.4185 298.9740 -148623.5086 -117833.3805 298.9473 -95.9167 -17.6283 497421.0027 -5.2695 -5.2752
TCL: Setting parameter constraintScaling to 0.078125
TCL: Running for 5000 steps
ETITLE: TS BOND ANGLE DIHED IMPRP ELECT VDW BOUNDARY MISC KINETIC TOTAL TEMP POTENTIAL TOTAL3 TEMPAVG PRESSURE GPRESSURE VOLUME PRESSAVG GPRESSAVG
ENERGY: 35000 1627.3216 2376.8258 3243.4764 0.0000 -176013.9178 19937.6776 102.5539 0.0000 30748.0370 -117978.0255 298.9541 -148726.0625 -117936.9056 298.9541 -124.7960 -45.2914 497421.0027 -124.7960 -45.2914
ENERGY: 36000 1624.5259 2402.9399 3225.9848 0.0000 -175968.7253 20030.5079 150.2296 0.0000 30702.3014 -117832.2359 298.5094 -148534.5373 -117791.5578 299.4638 -134.9177 -24.6823 497250.6528 5.3506 5.9352
ENERGY: 37000 1671.5365 2410.7997 3203.4406 0.0000 -175791.8029 20058.1154 154.0277 0.0000 30804.5182 -117489.3647 299.5032 -148293.8829 -117445.5257 299.2709 74.2770 33.9519 496829.4240 -3.1634 -2.8695
ENERGY: 38000 1656.7790 2410.0380 3200.8663 0.0000 -176135.1207 20194.6515 160.8248 0.0000 31232.4470 -117279.5140 303.6639 -148511.9610 -117237.8444 300.9877 -24.1767 9.3261 498114.8765 2.1025 1.9381
ENERGY: 39000 1673.3426 2441.7401 3222.7661 0.0000 -176167.8976 20234.8857 173.3415 0.0000 30936.6387 -117485.1828 300.7878 -148421.8215 -117437.9307 301.0488 78.4219 80.8801 496590.3507 -2.7880 -3.3135
ENERGY: 40000 1646.9247 2375.9678 3193.8834 0.0000 -175890.4354 19922.5907 160.1394 0.0000 30793.5006 -117797.4290 299.3961 -148590.9295 -117750.0679 300.3553 -30.9359 -43.1560 496933.1639 -8.2855 -8.4698
TCL: Setting parameter constraintScaling to 0.0390625
TCL: Running for 5000 steps
ETITLE: TS BOND ANGLE DIHED IMPRP ELECT VDW BOUNDARY MISC KINETIC TOTAL TEMP POTENTIAL TOTAL3 TEMPAVG PRESSURE GPRESSURE VOLUME PRESSAVG GPRESSAVG
ENERGY: 40000 1646.9247 2375.9678 3193.8834 0.0000 -175890.4354 19922.5907 80.0697 0.0000 30791.4474 -117879.5518 299.3762 -148670.9992 -117835.5469 299.3762 -48.6226 -68.8422 496933.1639 -48.6226 -68.8422
ENERGY: 41000 1618.7203 2420.6283 3220.7450 0.0000 -175775.8800 20079.6392 104.4522 0.0000 30955.2802 -117376.4148 300.9690 -148331.6950 -117329.7181 300.2885 33.6706 46.4344 496730.3469 -1.3047 -1.3708
ENERGY: 42000 1648.1254 2399.7288 3210.9782 0.0000 -175933.6219 19992.8913 123.3638 0.0000 30960.5610 -117597.9733 301.0204 -148558.5343 -117536.2636 300.3474 -101.9500 -0.7065 497572.0333 10.2809 10.5956
ENERGY: 43000 1597.7178 2314.8593 3229.1835 0.0000 -176559.6299 20398.0983 134.1987 0.0000 30766.3718 -118119.2006 299.1323 -148885.5724 -118073.2971 299.2241 125.3467 129.1799 498220.8176 1.3577 1.5027
ENERGY: 44000 1637.1089 2395.9414 3228.5775 0.0000 -175531.8297 19989.9697 142.7932 0.0000 30694.5093 -117442.9297 298.4337 -148137.4390 -117400.0364 299.4055 -36.7291 44.6743 498458.7923 -1.1366 -1.2647
ENERGY: 45000 1613.4361 2436.9223 3189.8478 0.0000 -175604.2014 20118.7833 145.5652 0.0000 30531.0320 -117568.6148 296.8442 -148099.6468 -117519.7913 299.4343 -73.5477 33.5492 498851.8711 3.4505 4.4748
TCL: Setting parameter constraintScaling to 0.01953125
TCL: Running for 5000 steps
ETITLE: TS BOND ANGLE DIHED IMPRP ELECT VDW BOUNDARY MISC KINETIC TOTAL TEMP POTENTIAL TOTAL3 TEMPAVG PRESSURE GPRESSURE VOLUME PRESSAVG GPRESSAVG
ENERGY: 45000 1613.4361 2436.9223 3189.8478 0.0000 -175604.2014 20118.7833 72.7826 0.0000 30529.0098 -117643.4196 296.8245 -148172.4294 -117602.2392 296.8245 -88.0212 17.8786 498851.8711 -88.0212 17.8786
ENERGY: 46000 1603.0771 2443.9919 3178.5755 0.0000 -175841.3122 20079.1033 86.2391 0.0000 30773.3138 -117677.0115 299.1998 -148450.3253 -117639.6423 299.6097 74.8996 47.3182 497906.1789 5.9711 5.3581
ENERGY: 47000 1621.5757 2394.7327 3208.9653 0.0000 -175830.5399 20038.2511 91.3313 0.0000 30946.5751 -117529.1086 300.8844 -148475.6837 -117486.6725 300.4101 -35.4058 22.7362 497403.0546 4.2584 3.8742
ENERGY: 48000 1613.3919 2381.7294 3173.3418 0.0000 -176115.4107 20157.9428 95.1831 0.0000 30969.8639 -117723.9577 301.1108 -148693.8216 -117672.4588 299.6906 42.0911 35.4583 496544.2950 1.9218 2.1849
ENERGY: 49000 1604.0248 2328.6732 3225.8226 0.0000 -176252.8659 20173.5511 91.8676 0.0000 30689.7299 -118139.1968 298.3872 -148828.9267 -118099.8073 300.0629 -87.3614 -13.8747 496799.9923 -0.7217 -0.4292
ENERGY: 50000 1577.5255 2416.7542 3202.7528 0.0000 -176046.8289 20028.8586 93.7586 0.0000 30645.4570 -118081.7222 297.9567 -148727.1792 -118044.9610 298.4531 -87.5347 -5.6958 497134.4768 7.8186 7.6945
TCL: Setting parameter constraintScaling to 0
TCL: Running for 5000 steps
ETITLE: TS BOND ANGLE DIHED IMPRP ELECT VDW BOUNDARY MISC KINETIC TOTAL TEMP POTENTIAL TOTAL3 TEMPAVG PRESSURE GPRESSURE VOLUME PRESSAVG GPRESSAVG
ENERGY: 50000 1577.5255 2416.7542 3202.7528 0.0000 -176046.8289 20028.8586 0.0000 0.0000 30643.4193 -118177.5185 297.9369 -148820.9378 -118134.7957 297.9369 -115.9537 -28.3661 497134.4768 -115.9537 -28.3661
ENERGY: 51000 1623.2789 2363.6103 3265.7311 0.0000 -176037.9018 20030.3612 0.0000 0.0000 30743.1590 -118011.7613 298.9067 -148754.9202 -117974.9818 298.0694 43.4122 26.5105 497466.2971 0.1386 0.0311
ENERGY: 52000 1589.0941 2438.4862 3227.6288 0.0000 -175975.1266 20254.3879 0.0000 0.0000 30912.4828 -117553.0467 300.5529 -148465.5295 -117501.7930 299.7269 -27.6739 58.1082 498117.3603 7.2884 7.6425
ENERGY: 53000 1698.1962 2370.1471 3205.8750 0.0000 -175678.0343 19967.7212 0.0000 0.0000 30912.9782 -117523.1166 300.5578 -148436.0948 -117470.9220 300.1999 -139.1237 -126.5912 497732.0507 5.1212 4.8693
ENERGY: 54000 1635.8186 2466.6926 3181.0335 0.0000 -176168.3358 20037.8066 0.0000 0.0000 30961.5071 -117885.4773 301.0296 -148846.9845 -117831.3034 300.1174 -22.0477 -43.2942 497383.7712 -4.6227 -4.5038
ENERGY: 55000 1615.6470 2472.2641 3206.3524 0.0000 -175558.3115 19991.9958 0.0000 0.0000 30760.2834 -117511.7688 299.0732 -148272.0522 -117460.1990 299.9061 -23.6075 58.2959 497699.7807 9.7485 9.2785
