Info: SIMULATION PARAMETERS:
Info: TIMESTEP               2
Info: NUMBER OF STEPS        0
Info: STEPS PER CYCLE        10
Info: PERIODIC CELL BASIS 1  72.449 0 0
Info: PERIODIC CELL BASIS 2  0 93.247 0
Info: PERIODIC CELL BASIS 3  0 0 79.185
Info: PERIODIC CELL CENTER   -0.248 -0.156 -0.047
Info: WRAPPING WATERS AROUND PERIODIC BOUNDARIES ON OUTPUT.
Info: WRAPPING ALL CLUSTERS AROUND PERIODIC BOUNDARIES ON OUTPUT.
Info: FIRST LDB TIMESTEP     50
Info: LAST LDB TIMESTEP     -1
Info: HOM BACKGROUND SCALING 1
Info: PME BACKGROUND SCALING 1
Info: MIN ATOMS PER PATCH    40
Info: INITIAL TEMPERATURE    0
Info: CENTER OF MASS MOVING INITIALLY? NO
Info: DIELECTRIC             1
Info: EXCLUDE                SCALED ONE-FOUR
Info: 1-4 ELECTROSTATICS SCALED BY 0.833333
Info: MODIFIED 1-4 VDW PARAMETERS WILL BE USED
Info: NO DCD TRAJECTORY OUTPUT
Info: NO EXTENDED SYSTEM TRAJECTORY OUTPUT
Info: NO VELOCITY DCD OUTPUT
Info: NO FORCE DCD OUTPUT
Info: OUTPUT FILENAME        ../replicas/rep1/equilibration/eq0
Info: NO RESTART FILE
Info: SWITCHING ACTIVE
Info: SWITCHING ON           10
Info: SWITCHING OFF          12
Info: PAIRLIST DISTANCE      13.5
Info: PAIRLIST SHRINK RATE   0.01
Info: PAIRLIST GROW RATE     0.01
Info: PAIRLIST TRIGGER       0.3
Info: PAIRLISTS PER CYCLE    2
Info: PAIRLISTS ENABLED
Info: MARGIN                 0
Info: HYDROGEN GROUP CUTOFF  2.5
Info: PATCH DIMENSION        16
Info: ENERGY OUTPUT STEPS    500
Info: CROSSTERM ENERGY INCLUDED IN DIHEDRAL
Info: TIMING OUTPUT STEPS    5000
Info: PRESSURE OUTPUT STEPS  500
Info: HARMONIC CONSTRAINTS ACTIVE
Info: HARMONIC CONS EXP      2
Info: HARMONIC CONS SCALING  10
Info: CONJUGATE GRADIENT MINIMIZATION ACTIVE
Info: LINE MINIMIZATION GOAL = 0.001
Info: BABY STEP SIZE = 0.01
Info: TINY STEP SIZE = 1e-06
Info: PARTICLE MESH EWALD (PME) ACTIVE
Info: PME TOLERANCE               1e-06
Info: PME EWALD COEFFICIENT       0.257952
Info: PME INTERPOLATION ORDER     4
Info: PME GRID DIMENSIONS         80 96 80
Info: PME MAXIMUM GRID SPACING    1
Info: FULL ELECTROSTATIC EVALUATION FREQUENCY      2
Info: USING VERLET I (r-RESPA) MTS SCHEME.
Info: C1 SPLITTING OF LONG RANGE ELECTROSTATICS
Info: PLACING ATOMS IN PATCHES BY HYDROGEN GROUPS
Info: RIGID BONDS TO HYDROGEN : ALL
Info:         ERROR TOLERANCE : 1e-05
Info:          MAX ITERATIONS : 100
Info: RIGID WATER USING SETTLE ALGORITHM
Info: RANDOM NUMBER SEED     1503249633
Info: USE HYDROGEN BONDS?    NO
Info: Using AMBER format force field!
Info: AMBER PARM FILE        ../build/complex.top
Info: COORDINATE PDB         ../build/complex.pdb
Info: Exclusions in PARM file will be ignored!
Info: SCNB (VDW SCALING)     2
Info: USING ARITHMETIC MEAN TO COMBINE L-J SIGMA PARAMETERS
Info: SUMMARY OF PARAMETERS:
Info: 71 BONDS
Info: 145 ANGLES
Info: 76 DIHEDRAL
Info: 0 IMPROPER
Info: 0 CROSSTERM
Info: 0 VDW
Info: 190 VDW_PAIRS
Info: 0 NBTHOLE_PAIRS
Info: STRUCTURE SUMMARY:
Info: 49394 ATOMS
Info: 49448 BONDS
Info: 8698 ANGLES
Info: 18780 DIHEDRALS
Info: 0 IMPROPERS
Info: 0 CROSSTERMS
Info: 0 EXCLUSIONS
Info: 2336 CONSTRAINTS
Info: 47058 RIGID BONDS
Info: 101124 DEGREES OF FREEDOM
Info: 17225 HYDROGEN GROUPS
Info: 4 ATOMS IN LARGEST HYDROGEN GROUP
Info: 17225 MIGRATION GROUPS
Info: 4 ATOMS IN LARGEST MIGRATION GROUP
Info: TOTAL MASS = 301478 amu
Info: TOTAL CHARGE = 1.00115e-05 e
Info: MASS DENSITY = 0.935846 g/cm^3
Info: ATOM DENSITY = 0.0923345 atoms/A^3
Info: ADDED 70656 IMPLICIT EXCLUSIONS
Info: NONBONDED TABLE R-SQUARED SPACING: 0.0625
Info: NONBONDED TABLE SIZE: 769 POINTS
Info: REMOVING COM VELOCITY 0 0 0
TCL: Minimizing for 100 steps
ETITLE: TS BOND ANGLE DIHED IMPRP ELECT VDW BOUNDARY MISC KINETIC TOTAL TEMP POTENTIAL TOTAL3 TEMPAVG PRESSURE GPRESSURE VOLUME PRESSAVG GPRESSAVG
ENERGY: 0 155.4176 1012.2698 2855.7272 0.0000 -154496.7912 207729.2052 0.0468 0.0000 0.0000 57255.8754 0.0000 57255.8754 57255.8754 0.0000 116350.2532 86546.1670 534946.2959 116350.2532 86546.1670
ENERGY: 20 304.7560 935.7912 2893.4663 0.0000 -158672.9411 17936.6591 143.9455 0.0000 0.0000 -136458.3230 0.0000 -136458.3230 -136458.3230 0.0000 16523.9383 -239.4562 534946.2959 16523.9383 -239.4562
ENERGY: 40 198.7454 799.5729 2896.9273 0.0000 -162811.4525 16417.9539 221.3030 0.0000 0.0000 -142276.9499 0.0000 -142276.9499 -142276.9499 0.0000 15011.2705 -2135.4695 534946.2959 15011.2705 -2135.4695
ENERGY: 60 130.5282 715.3440 2898.2166 0.0000 -167496.1567 15446.7540 315.2796 0.0000 0.0000 -147990.0343 0.0000 -147990.0343 -147990.0343 0.0000 13793.8837 -3799.3986 534946.2959 13793.8837 -3799.3986
ENERGY: 80 431.2719 765.6304 2904.3787 0.0000 -169937.5333 15121.1519 372.0123 0.0000 0.0000 -150343.0879 0.0000 -150343.0879 -150343.0879 0.0000 13270.3299 -4577.2457 534946.2959 13270.3299 -4577.2457
ENERGY: 100 119.3849 710.0599 2905.2591 0.0000 -171259.7119 14991.7870 387.3613 0.0000 0.0000 -152145.8596 0.0000 -152145.8596 -152145.8596 0.0000 13056.2655 -4908.1719 534946.2959 13056.2655 -4908.1719
TCL: Setting parameter constraintScaling to 5.0
TCL: Minimizing for 100 steps
ETITLE: TS BOND ANGLE DIHED IMPRP ELECT VDW BOUNDARY MISC KINETIC TOTAL TEMP POTENTIAL TOTAL3 TEMPAVG PRESSURE GPRESSURE VOLUME PRESSAVG GPRESSAVG
ENERGY: 100 119.3849 710.0599 2905.2591 0.0000 -171259.7119 14991.7870 193.6807 0.0000 0.0000 -152339.5403 0.0000 -152339.5403 -152339.5403 0.0000 13672.7716 -23021.8182 534946.2959 13672.7716 -23021.8182
ENERGY: 120 108.8828 687.5841 2912.9266 0.0000 -172865.8849 14798.2706 281.1917 0.0000 0.0000 -154077.0291 0.0000 -154077.0291 -154077.0291 0.0000 13218.2546 -4906.0171 534946.2959 13218.2546 -4906.0171
ENERGY: 140 309.4181 708.8656 2913.8025 0.0000 -174236.6930 14731.4803 326.6400 0.0000 0.0000 -155246.4865 0.0000 -155246.4865 -155246.4865 0.0000 12971.5249 -5303.2480 534946.2959 12971.5249 -5303.2480
ENERGY: 160 265.2933 683.1319 2923.1773 0.0000 -176275.6100 14757.3525 382.8995 0.0000 0.0000 -157263.7555 0.0000 -157263.7555 -157263.7555 0.0000 12740.9248 -5736.3996 534946.2959 12740.9248 -5736.3996
ENERGY: 180 268.8552 744.0955 2928.5660 0.0000 -178995.5617 15023.5400 473.3104 0.0000 0.0000 -159557.1946 0.0000 -159557.1946 -159557.1946 0.0000 12521.5951 -6217.1415 534946.2959 12521.5951 -6217.1415
ENERGY: 200 238.9394 694.0869 2941.3652 0.0000 -181556.4466 15587.0942 546.2695 0.0000 0.0000 -161548.6914 0.0000 -161548.6914 -161548.6914 0.0000 12582.6491 -6424.5407 534946.2959 12582.6491 -6424.5407
TCL: Setting parameter constraintScaling to 2.5
TCL: Minimizing for 100 steps
ETITLE: TS BOND ANGLE DIHED IMPRP ELECT VDW BOUNDARY MISC KINETIC TOTAL TEMP POTENTIAL TOTAL3 TEMPAVG PRESSURE GPRESSURE VOLUME PRESSAVG GPRESSAVG
ENERGY: 200 238.9394 694.0869 2941.3652 0.0000 -181556.4466 15587.0942 273.1348 0.0000 0.0000 -161821.8262 0.0000 -161821.8262 -161821.8262 0.0000 13229.5609 -25655.3610 534946.2959 13229.5609 -25655.3610
ENERGY: 220 251.1245 679.9269 2933.0266 0.0000 -182083.0112 15470.9603 338.5743 0.0000 0.0000 -162409.3986 0.0000 -162409.3986 -162409.3986 0.0000 12967.9689 -6094.6966 534946.2959 12967.9689 -6094.6966
ENERGY: 240 139.3013 665.8049 2928.6031 0.0000 -182462.6353 15494.2667 343.5859 0.0000 0.0000 -162891.0734 0.0000 -162891.0734 -162891.0734 0.0000 13034.3345 -6107.6054 534946.2959 13034.3345 -6107.6054
ENERGY: 260 164.5437 683.7589 2921.6081 0.0000 -183940.9844 15800.1386 385.4778 0.0000 0.0000 -163985.4572 0.0000 -163985.4572 -163985.4572 0.0000 13031.8004 -6246.4872 534946.2959 13031.8004 -6246.4872
ENERGY: 280 168.9990 700.8763 2917.5999 0.0000 -185422.5626 16228.7167 454.8460 0.0000 0.0000 -164951.5248 0.0000 -164951.5248 -164951.5248 0.0000 13143.4036 -6338.5302 534946.2959 13143.4036 -6338.5302
ENERGY: 300 126.6747 639.5388 2916.2515 0.0000 -186094.5659 16445.7330 481.3769 0.0000 0.0000 -165484.9910 0.0000 -165484.9910 -165484.9910 0.0000 13207.7004 -6342.6446 534946.2959 13207.7004 -6342.6446
TCL: Setting parameter constraintScaling to 1.25
TCL: Minimizing for 100 steps
ETITLE: TS BOND ANGLE DIHED IMPRP ELECT VDW BOUNDARY MISC KINETIC TOTAL TEMP POTENTIAL TOTAL3 TEMPAVG PRESSURE GPRESSURE VOLUME PRESSAVG GPRESSAVG
ENERGY: 300 126.6747 639.5388 2916.2515 0.0000 -186094.5659 16445.7330 240.6884 0.0000 0.0000 -165725.6794 0.0000 -165725.6794 -165725.6794 0.0000 13656.0476 -26352.6207 534946.2959 13656.0476 -26352.6207
ENERGY: 320 248.2326 662.1183 2911.8585 0.0000 -186750.1979 16600.9786 282.1072 0.0000 0.0000 -166044.9026 0.0000 -166044.9026 -166044.9026 0.0000 13577.9547 -6032.0756 534946.2959 13577.9547 -6032.0756
ENERGY: 340 138.1549 625.4277 2909.2974 0.0000 -187249.3571 16772.7295 289.0524 0.0000 0.0000 -166514.6952 0.0000 -166514.6952 -166514.6952 0.0000 13699.1350 -5970.8681 534946.2959 13699.1350 -5970.8681
ENERGY: 360 274.1980 701.3216 2908.5968 0.0000 -188954.1978 17361.8735 351.3897 0.0000 0.0000 -167356.8182 0.0000 -167356.8182 -167356.8182 0.0000 13902.9152 -5994.3866 534946.2959 13902.9152 -5994.3866
ENERGY: 380 273.6145 658.8402 2901.5598 0.0000 -190625.2705 18029.3680 409.6237 0.0000 0.0000 -168352.2642 0.0000 -168352.2642 -168352.2642 0.0000 14047.3647 -5979.4208 534946.2959 14047.3647 -5979.4208
ENERGY: 400 131.3268 639.4559 2898.9886 0.0000 -190588.4956 17987.5879 402.7223 0.0000 0.0000 -168528.4142 0.0000 -168528.4142 -168528.4142 0.0000 14136.5501 -5924.9767 534946.2959 14136.5501 -5924.9767
TCL: Setting parameter constraintScaling to 0.625
TCL: Minimizing for 100 steps
ETITLE: TS BOND ANGLE DIHED IMPRP ELECT VDW BOUNDARY MISC KINETIC TOTAL TEMP POTENTIAL TOTAL3 TEMPAVG PRESSURE GPRESSURE VOLUME PRESSAVG GPRESSAVG
ENERGY: 400 131.3268 639.4559 2898.9886 0.0000 -190588.4956 17987.5879 201.3612 0.0000 0.0000 -168729.7753 0.0000 -168729.7753 -168729.7753 0.0000 14438.6452 -26617.7050 534946.2959 14438.6452 -26617.7050
ENERGY: 420 145.8409 634.2339 2893.8970 0.0000 -191248.9701 18137.9048 235.9230 0.0000 0.0000 -169201.1704 0.0000 -169201.1704 -169201.1704 0.0000 14355.1886 -5754.4165 534946.2959 14355.1886 -5754.4165
ENERGY: 440 150.9934 646.7440 2890.7719 0.0000 -191511.5765 18233.3840 236.8640 0.0000 0.0000 -169352.8192 0.0000 -169352.8192 -169352.8192 0.0000 14466.7714 -5694.1728 534946.2959 14466.7714 -5694.1728
ENERGY: 460 166.6387 634.2631 2890.2388 0.0000 -192429.5649 18570.3062 256.9824 0.0000 0.0000 -169911.1356 0.0000 -169911.1356 -169911.1356 0.0000 14570.1892 -5678.1424 534946.2959 14570.1892 -5678.1424
ENERGY: 480 263.8387 660.4265 2886.8815 0.0000 -193425.3883 18936.9625 290.5417 0.0000 0.0000 -170386.7375 0.0000 -170386.7375 -170386.7375 0.0000 14646.3312 -5702.8534 534946.2959 14646.3312 -5702.8534
ENERGY: 500 188.7064 700.7935 2881.8281 0.0000 -193922.3119 19148.4382 290.8117 0.0000 0.0000 -170711.7340 0.0000 -170711.7340 -170711.7340 0.0000 14826.8985 -5599.3187 534946.2959 14826.8985 -5599.3187
TCL: Setting parameter constraintScaling to 0.3125
TCL: Minimizing for 100 steps
ETITLE: TS BOND ANGLE DIHED IMPRP ELECT VDW BOUNDARY MISC KINETIC TOTAL TEMP POTENTIAL TOTAL3 TEMPAVG PRESSURE GPRESSURE VOLUME PRESSAVG GPRESSAVG
ENERGY: 500 188.7064 700.7935 2881.8281 0.0000 -193922.3119 19148.4382 145.4059 0.0000 0.0000 -170857.1398 0.0000 -170857.1398 -170857.1398 0.0000 15015.9941 -26832.8070 534946.2959 15015.9941 -26832.8070
ENERGY: 520 161.1985 665.8751 2883.9800 0.0000 -194241.1315 19224.6136 163.5342 0.0000 0.0000 -171141.9302 0.0000 -171141.9302 -171141.9302 0.0000 14968.4380 -5480.8170 534946.2959 14968.4380 -5480.8170
ENERGY: 540 162.2614 646.8789 2871.5297 0.0000 -195214.7058 19586.3909 187.7874 0.0000 0.0000 -171759.8575 0.0000 -171759.8575 -171759.8575 0.0000 15108.6660 -5440.7618 534946.2959 15108.6660 -5440.7618
ENERGY: 560 148.2744 656.7979 2872.8088 0.0000 -196027.7698 19905.5360 202.5861 0.0000 0.0000 -172241.7665 0.0000 -172241.7665 -172241.7665 0.0000 15295.6521 -5367.3919 534946.2959 15295.6521 -5367.3919
ENERGY: 580 200.1398 688.1937 2869.6126 0.0000 -196328.6572 20013.4650 212.2994 0.0000 0.0000 -172344.9467 0.0000 -172344.9467 -172344.9467 0.0000 15316.8883 -5380.4718 534946.2959 15316.8883 -5380.4718
ENERGY: 600 196.6231 689.6042 2869.5715 0.0000 -197849.8217 20630.9456 233.7562 0.0000 0.0000 -173229.3211 0.0000 -173229.3211 -173229.3211 0.0000 15524.3689 -5299.8687 534946.2959 15524.3689 -5299.8687
TCL: Setting parameter constraintScaling to 0.15625
TCL: Minimizing for 100 steps
ETITLE: TS BOND ANGLE DIHED IMPRP ELECT VDW BOUNDARY MISC KINETIC TOTAL TEMP POTENTIAL TOTAL3 TEMPAVG PRESSURE GPRESSURE VOLUME PRESSAVG GPRESSAVG
ENERGY: 600 196.6231 689.6042 2869.5715 0.0000 -197849.8217 20630.9456 116.8781 0.0000 0.0000 -173346.1992 0.0000 -173346.1992 -173346.1992 0.0000 15651.0266 -27124.3390 534946.2959 15651.0266 -27124.3390
ENERGY: 620 351.9571 779.0512 2873.3246 0.0000 -198200.4070 20795.2102 121.2945 0.0000 0.0000 -173279.5694 0.0000 -173279.5694 -173279.5694 0.0000 15669.3865 -5163.0383 534946.2959 15669.3865 -5163.0383
ENERGY: 640 177.6290 651.0395 2855.2233 0.0000 -198569.7779 20877.8821 130.6601 0.0000 0.0000 -173877.3437 0.0000 -173877.3437 -173877.3437 0.0000 15794.0793 -5132.3176 534946.2959 15794.0793 -5132.3176
ENERGY: 660 162.4117 659.2895 2849.9614 0.0000 -198693.8546 20915.1395 131.8439 0.0000 0.0000 -173975.2086 0.0000 -173975.2086 -173975.2086 0.0000 15849.0235 -5120.6780 534946.2959 15849.0235 -5120.6780
ENERGY: 680 170.2524 701.3155 2856.7470 0.0000 -199097.5895 21075.2854 137.1870 0.0000 0.0000 -174156.8022 0.0000 -174156.8022 -174156.8022 0.0000 15897.6583 -5103.3229 534946.2959 15897.6583 -5103.3229
ENERGY: 700 192.0023 676.2358 2857.1463 0.0000 -200141.3049 21481.1485 148.0071 0.0000 0.0000 -174786.7648 0.0000 -174786.7648 -174786.7648 0.0000 16141.6513 -5008.3270 534946.2959 16141.6513 -5008.3270
TCL: Setting parameter constraintScaling to 0.078125
TCL: Minimizing for 100 steps
ETITLE: TS BOND ANGLE DIHED IMPRP ELECT VDW BOUNDARY MISC KINETIC TOTAL TEMP POTENTIAL TOTAL3 TEMPAVG PRESSURE GPRESSURE VOLUME PRESSAVG GPRESSAVG
ENERGY: 700 192.0023 676.2358 2857.1463 0.0000 -200141.3049 21481.1485 74.0036 0.0000 0.0000 -174860.7684 0.0000 -174860.7684 -174860.7684 0.0000 16214.8797 -27113.9136 534946.2959 16214.8797 -27113.9136
ENERGY: 720 161.0086 651.0594 2840.0080 0.0000 -200279.8776 21512.7781 76.7009 0.0000 0.0000 -175038.3227 0.0000 -175038.3227 -175038.3227 0.0000 16211.5490 -4939.7541 534946.2959 16211.5490 -4939.7541
ENERGY: 740 179.9910 675.7287 2842.5911 0.0000 -200714.4195 21677.9916 84.1411 0.0000 0.0000 -175253.9760 0.0000 -175253.9760 -175253.9760 0.0000 16237.5107 -4955.9373 534946.2959 16237.5107 -4955.9373
ENERGY: 760 346.2399 693.9554 2836.0426 0.0000 -201039.7833 21791.7547 85.3899 0.0000 0.0000 -175286.4008 0.0000 -175286.4008 -175286.4008 0.0000 16293.4230 -4939.8142 534946.2959 16293.4230 -4939.8142
ENERGY: 780 166.5729 658.5215 2840.8851 0.0000 -201327.1214 21907.8805 85.9152 0.0000 0.0000 -175667.3463 0.0000 -175667.3463 -175667.3463 0.0000 16389.0168 -4888.9933 534946.2959 16389.0168 -4888.9933
ENERGY: 800 155.4277 653.0976 2841.3687 0.0000 -202002.6835 22198.3268 90.6479 0.0000 0.0000 -176063.8147 0.0000 -176063.8147 -176063.8147 0.0000 16571.5966 -4794.2450 534946.2959 16571.5966 -4794.2450
TCL: Setting parameter constraintScaling to 0.0390625
TCL: Minimizing for 100 steps
ETITLE: TS BOND ANGLE DIHED IMPRP ELECT VDW BOUNDARY MISC KINETIC TOTAL TEMP POTENTIAL TOTAL3 TEMPAVG PRESSURE GPRESSURE VOLUME PRESSAVG GPRESSAVG
ENERGY: 800 155.4277 653.0976 2841.3687 0.0000 -202002.6835 22198.3268 45.3240 0.0000 0.0000 -176109.1387 0.0000 -176109.1387 -176109.1387 0.0000 16612.9433 -27168.1370 534946.2959 16612.9433 -27168.1370
ENERGY: 820 164.4199 656.0852 2826.3882 0.0000 -202297.3102 22268.5674 48.4782 0.0000 0.0000 -176333.3714 0.0000 -176333.3714 -176333.3714 0.0000 16607.5275 -4791.8579 534946.2959 16607.5275 -4791.8579
ENERGY: 840 177.0570 667.3321 2833.2543 0.0000 -202518.2971 22366.3013 50.1432 0.0000 0.0000 -176424.2093 0.0000 -176424.2093 -176424.2093 0.0000 16584.8269 -4808.0227 534946.2959 16584.8269 -4808.0227
ENERGY: 860 165.6734 655.7740 2822.5742 0.0000 -202609.0821 22400.3621 50.2125 0.0000 0.0000 -176514.4859 0.0000 -176514.4859 -176514.4859 0.0000 16650.1715 -4766.9836 534946.2959 16650.1715 -4766.9836
ENERGY: 880 253.1207 674.9225 2828.8564 0.0000 -203547.7319 22807.3000 54.2596 0.0000 0.0000 -176929.2726 0.0000 -176929.2726 -176929.2726 0.0000 16818.7737 -4691.6187 534946.2959 16818.7737 -4691.6187
ENERGY: 900 180.9420 673.8850 2818.7811 0.0000 -203847.1502 22925.3118 56.6834 0.0000 0.0000 -177191.5469 0.0000 -177191.5469 -177191.5469 0.0000 16890.3047 -4664.3724 534946.2959 16890.3047 -4664.3724
TCL: Setting parameter constraintScaling to 0.01953125
TCL: Minimizing for 100 steps
ETITLE: TS BOND ANGLE DIHED IMPRP ELECT VDW BOUNDARY MISC KINETIC TOTAL TEMP POTENTIAL TOTAL3 TEMPAVG PRESSURE GPRESSURE VOLUME PRESSAVG GPRESSAVG
ENERGY: 900 180.9420 673.8850 2818.7811 0.0000 -203847.1502 22925.3118 28.3417 0.0000 0.0000 -177219.8886 0.0000 -177219.8886 -177219.8886 0.0000 16913.9490 -27295.2231 534946.2959 16913.9490 -27295.2231
ENERGY: 920 165.9154 649.9110 2819.4132 0.0000 -203952.0306 22967.7491 28.5725 0.0000 0.0000 -177320.4693 0.0000 -177320.4693 -177320.4693 0.0000 16951.8729 -4623.5324 534946.2959 16951.8729 -4623.5324
ENERGY: 940 163.1858 652.8752 2814.2151 0.0000 -204284.4371 23109.0977 29.7602 0.0000 0.0000 -177515.3030 0.0000 -177515.3030 -177515.3030 0.0000 17030.5073 -4587.5528 534946.2959 17030.5073 -4587.5528
ENERGY: 960 165.5354 683.5606 2818.4547 0.0000 -204741.7333 23300.1404 30.7970 0.0000 0.0000 -177743.2450 0.0000 -177743.2450 -177743.2450 0.0000 17168.2236 -4521.1732 534946.2959 17168.2236 -4521.1732
ENERGY: 980 164.8477 656.2235 2811.3344 0.0000 -204992.2800 23413.5133 31.6225 0.0000 0.0000 -177914.7386 0.0000 -177914.7386 -177914.7386 0.0000 17202.1557 -4509.1112 534946.2959 17202.1557 -4509.1112
ENERGY: 1000 206.8840 674.0785 2811.1642 0.0000 -205575.2211 23685.5860 33.8826 0.0000 0.0000 -178163.6257 0.0000 -178163.6257 -178163.6257 0.0000 17314.5617 -4458.3526 534946.2959 17314.5617 -4458.3526
TCL: Setting parameter constraintScaling to 0
TCL: Minimizing for 5000 steps
ETITLE: TS BOND ANGLE DIHED IMPRP ELECT VDW BOUNDARY MISC KINETIC TOTAL TEMP POTENTIAL TOTAL3 TEMPAVG PRESSURE GPRESSURE VOLUME PRESSAVG GPRESSAVG
ENERGY: 1000 206.8840 674.0785 2811.1642 0.0000 -205575.2211 23685.5860 0.0000 0.0000 0.0000 -178197.5084 0.0000 -178197.5084 -178197.5084 0.0000 17341.1078 -27274.2746 534946.2959 17341.1078 -27274.2746
ENERGY: 2000 167.6497 666.8480 2803.6325 0.0000 -214864.5583 27903.3155 0.0000 0.0000 0.0000 -183323.1127 0.0000 -183323.1127 -183323.1127 0.0000 19603.2071 -3209.7890 534946.2959 19603.2071 -3209.7890
ENERGY: 3000 166.4540 667.2047 2795.2771 0.0000 -217534.3504 28932.5109 0.0000 0.0000 0.0000 -184972.9036 0.0000 -184972.9036 -184972.9036 0.0000 20147.0970 -2946.0444 534946.2959 20147.0970 -2946.0444
ENERGY: 4000 171.0012 664.5035 2787.4955 0.0000 -218867.2442 29456.8746 0.0000 0.0000 0.0000 -185787.3693 0.0000 -185787.3693 -185787.3693 0.0000 20407.4711 -2821.3321 534946.2959 20407.4711 -2821.3321
ENERGY: 5000 166.2466 662.9788 2787.1666 0.0000 -219586.0343 29724.1614 0.0000 0.0000 0.0000 -186245.4809 0.0000 -186245.4809 -186245.4809 0.0000 20546.0269 -2751.0088 534946.2959 20546.0269 -2751.0088
ENERGY: 6000 165.2460 663.0090 2785.4767 0.0000 -219964.0902 29844.2764 0.0000 0.0000 0.0000 -186506.0821 0.0000 -186506.0821 -186506.0821 0.0000 20613.1256 -2726.4542 534946.2959 20613.1256 -2726.4542
