Info: SIMULATION PARAMETERS:
Info: TIMESTEP               2
Info: NUMBER OF STEPS        0
Info: STEPS PER CYCLE        10
Info: PERIODIC CELL BASIS 1  72.449 0 0
Info: PERIODIC CELL BASIS 2  0 93.247 0
Info: PERIODIC CELL BASIS 3  0 0 79.185
Info: PERIODIC CELL CENTER   -0.248 -0.156 -0.047
Info: WRAPPING WATERS AROUND PERIODIC BOUNDARIES ON OUTPUT.
Info: WRAPPING ALL CLUSTERS AROUND PERIODIC BOUNDARIES ON OUTPUT.
Info: FIRST LDB TIMESTEP     50
Info: LAST LDB TIMESTEP     -1
Info: HOM BACKGROUND SCALING 1
Info: PME BACKGROUND SCALING 1
Info: MIN ATOMS PER PATCH    40
Info: INITIAL TEMPERATURE    0
Info: CENTER OF MASS MOVING INITIALLY? NO
Info: DIELECTRIC             1
Info: EXCLUDE                SCALED ONE-FOUR
Info: 1-4 ELECTROSTATICS SCALED BY 0.833333
Info: MODIFIED 1-4 VDW PARAMETERS WILL BE USED
Info: NO DCD TRAJECTORY OUTPUT
Info: NO EXTENDED SYSTEM TRAJECTORY OUTPUT
Info: NO VELOCITY DCD OUTPUT
Info: NO FORCE DCD OUTPUT
Info: OUTPUT FILENAME        ../replicas/rep82/equilibration/eq0
Info: NO RESTART FILE
Info: SWITCHING ACTIVE
Info: SWITCHING ON           10
Info: SWITCHING OFF          12
Info: PAIRLIST DISTANCE      13.5
Info: PAIRLIST SHRINK RATE   0.01
Info: PAIRLIST GROW RATE     0.01
Info: PAIRLIST TRIGGER       0.3
Info: PAIRLISTS PER CYCLE    2
Info: PAIRLISTS ENABLED
Info: MARGIN                 0
Info: HYDROGEN GROUP CUTOFF  2.5
Info: PATCH DIMENSION        16
Info: ENERGY OUTPUT STEPS    500
Info: CROSSTERM ENERGY INCLUDED IN DIHEDRAL
Info: TIMING OUTPUT STEPS    5000
Info: PRESSURE OUTPUT STEPS  500
Info: HARMONIC CONSTRAINTS ACTIVE
Info: HARMONIC CONS EXP      2
Info: HARMONIC CONS SCALING  10
Info: CONJUGATE GRADIENT MINIMIZATION ACTIVE
Info: LINE MINIMIZATION GOAL = 0.001
Info: BABY STEP SIZE = 0.01
Info: TINY STEP SIZE = 1e-06
Info: PARTICLE MESH EWALD (PME) ACTIVE
Info: PME TOLERANCE               1e-06
Info: PME EWALD COEFFICIENT       0.257952
Info: PME INTERPOLATION ORDER     4
Info: PME GRID DIMENSIONS         80 96 80
Info: PME MAXIMUM GRID SPACING    1
Info: FULL ELECTROSTATIC EVALUATION FREQUENCY      2
Info: USING VERLET I (r-RESPA) MTS SCHEME.
Info: C1 SPLITTING OF LONG RANGE ELECTROSTATICS
Info: PLACING ATOMS IN PATCHES BY HYDROGEN GROUPS
Info: RIGID BONDS TO HYDROGEN : ALL
Info:         ERROR TOLERANCE : 1e-05
Info:          MAX ITERATIONS : 100
Info: RIGID WATER USING SETTLE ALGORITHM
Info: RANDOM NUMBER SEED     1503690976
Info: USE HYDROGEN BONDS?    NO
Info: Using AMBER format force field!
Info: AMBER PARM FILE        ../build/complex.top
Info: COORDINATE PDB         ../build/complex.pdb
Info: Exclusions in PARM file will be ignored!
Info: SCNB (VDW SCALING)     2
Info: USING ARITHMETIC MEAN TO COMBINE L-J SIGMA PARAMETERS
Info: SUMMARY OF PARAMETERS:
Info: 71 BONDS
Info: 145 ANGLES
Info: 76 DIHEDRAL
Info: 0 IMPROPER
Info: 0 CROSSTERM
Info: 0 VDW
Info: 190 VDW_PAIRS
Info: 0 NBTHOLE_PAIRS
Info: STRUCTURE SUMMARY:
Info: 49394 ATOMS
Info: 49448 BONDS
Info: 8698 ANGLES
Info: 18780 DIHEDRALS
Info: 0 IMPROPERS
Info: 0 CROSSTERMS
Info: 0 EXCLUSIONS
Info: 2336 CONSTRAINTS
Info: 47058 RIGID BONDS
Info: 101124 DEGREES OF FREEDOM
Info: 17225 HYDROGEN GROUPS
Info: 4 ATOMS IN LARGEST HYDROGEN GROUP
Info: 17225 MIGRATION GROUPS
Info: 4 ATOMS IN LARGEST MIGRATION GROUP
Info: TOTAL MASS = 301478 amu
Info: TOTAL CHARGE = 1.00115e-05 e
Info: MASS DENSITY = 0.935846 g/cm^3
Info: ATOM DENSITY = 0.0923345 atoms/A^3
Info: ADDED 70656 IMPLICIT EXCLUSIONS
Info: NONBONDED TABLE R-SQUARED SPACING: 0.0625
Info: NONBONDED TABLE SIZE: 769 POINTS
Info: REMOVING COM VELOCITY 0 0 0
TCL: Minimizing for 100 steps
ETITLE: TS BOND ANGLE DIHED IMPRP ELECT VDW BOUNDARY MISC KINETIC TOTAL TEMP POTENTIAL TOTAL3 TEMPAVG PRESSURE GPRESSURE VOLUME PRESSAVG GPRESSAVG
ENERGY: 0 155.4176 1012.2698 2855.7272 0.0000 -154496.7912 207729.2052 0.0468 0.0000 0.0000 57255.8754 0.0000 57255.8754 57255.8754 0.0000 116350.2532 86546.1670 534946.2959 116350.2532 86546.1670
ENERGY: 20 304.7546 935.7911 2893.4663 0.0000 -158672.9402 17936.6596 143.9454 0.0000 0.0000 -136458.3232 0.0000 -136458.3232 -136458.3232 0.0000 16523.9389 -239.4556 534946.2959 16523.9389 -239.4556
ENERGY: 40 198.7446 799.5728 2896.9273 0.0000 -162811.4534 16417.9536 221.3030 0.0000 0.0000 -142276.9521 0.0000 -142276.9521 -142276.9521 0.0000 15011.2702 -2135.4700 534946.2959 15011.2702 -2135.4700
ENERGY: 60 130.5282 715.3440 2898.2166 0.0000 -167496.1583 15446.7537 315.2796 0.0000 0.0000 -147990.0362 0.0000 -147990.0362 -147990.0362 0.0000 13793.8834 -3799.3991 534946.2959 13793.8834 -3799.3991
ENERGY: 80 431.2727 765.6308 2904.3785 0.0000 -169937.5260 15121.1528 372.0121 0.0000 0.0000 -150343.0791 0.0000 -150343.0791 -150343.0791 0.0000 13270.3315 -4577.2439 534946.2959 13270.3315 -4577.2439
ENERGY: 100 119.3867 710.0601 2905.2591 0.0000 -171259.7165 14991.7866 387.3613 0.0000 0.0000 -152145.8627 0.0000 -152145.8627 -152145.8627 0.0000 13056.2645 -4908.1738 534946.2959 13056.2645 -4908.1738
TCL: Setting parameter constraintScaling to 5.0
TCL: Minimizing for 100 steps
ETITLE: TS BOND ANGLE DIHED IMPRP ELECT VDW BOUNDARY MISC KINETIC TOTAL TEMP POTENTIAL TOTAL3 TEMPAVG PRESSURE GPRESSURE VOLUME PRESSAVG GPRESSAVG
ENERGY: 100 119.3867 710.0601 2905.2591 0.0000 -171259.7164 14991.7866 193.6807 0.0000 0.0000 -152339.5433 0.0000 -152339.5433 -152339.5433 0.0000 13672.7707 -23021.8199 534946.2959 13672.7707 -23021.8199
ENERGY: 120 108.8846 687.5847 2912.9267 0.0000 -172865.8790 14798.2709 281.1916 0.0000 0.0000 -154077.0205 0.0000 -154077.0205 -154077.0205 0.0000 13218.2554 -4906.0154 534946.2959 13218.2554 -4906.0154
ENERGY: 140 309.4559 708.8721 2913.8026 0.0000 -174236.6186 14731.4842 326.6379 0.0000 0.0000 -155246.3658 0.0000 -155246.3658 -155246.3658 0.0000 12971.5315 -5303.2317 534946.2959 12971.5315 -5303.2317
ENERGY: 160 265.1183 683.0801 2923.1671 0.0000 -176274.5933 14757.2920 382.8616 0.0000 0.0000 -157263.0742 0.0000 -157263.0742 -157263.0742 0.0000 12741.0529 -5736.2527 534946.2959 12741.0529 -5736.2527
ENERGY: 180 268.9689 744.0943 2928.5661 0.0000 -178994.7885 15023.4113 473.2701 0.0000 0.0000 -159556.4778 0.0000 -159556.4778 -159556.4778 0.0000 12521.6379 -6217.1404 534946.2959 12521.6379 -6217.1404
ENERGY: 200 238.8197 694.1003 2941.3576 0.0000 -181555.8633 15586.9570 546.2586 0.0000 0.0000 -161548.3701 0.0000 -161548.3701 -161548.3701 0.0000 12582.6396 -6424.5497 534946.2959 12582.6396 -6424.5497
TCL: Setting parameter constraintScaling to 2.5
TCL: Minimizing for 100 steps
ETITLE: TS BOND ANGLE DIHED IMPRP ELECT VDW BOUNDARY MISC KINETIC TOTAL TEMP POTENTIAL TOTAL3 TEMPAVG PRESSURE GPRESSURE VOLUME PRESSAVG GPRESSAVG
ENERGY: 200 238.8197 694.1003 2941.3576 0.0000 -181555.8633 15586.9570 273.1293 0.0000 0.0000 -161821.4994 0.0000 -161821.4994 -161821.4994 0.0000 13229.5373 -25655.3218 534946.2959 13229.5373 -25655.3218
ENERGY: 220 251.1278 680.0223 2933.0274 0.0000 -182082.9543 15470.7381 338.6431 0.0000 0.0000 -162409.3955 0.0000 -162409.3955 -162409.3955 0.0000 12967.6565 -6095.0545 534946.2959 12967.6565 -6095.0545
ENERGY: 240 139.2554 665.8259 2928.5968 0.0000 -182462.5931 15494.1122 343.6227 0.0000 0.0000 -162891.1801 0.0000 -162891.1801 -162891.1801 0.0000 13034.2229 -6107.8096 534946.2959 13034.2229 -6107.8096
ENERGY: 260 164.8631 683.7392 2921.6285 0.0000 -183940.9774 15800.3020 385.4045 0.0000 0.0000 -163985.0399 0.0000 -163985.0399 -163985.0399 0.0000 13031.8935 -6246.3890 534946.2959 13031.8935 -6246.3890
ENERGY: 280 169.0667 700.9423 2917.6111 0.0000 -185424.1028 16229.5249 454.7908 0.0000 0.0000 -164952.1669 0.0000 -164952.1669 -164952.1669 0.0000 13143.9330 -6338.2505 534946.2959 13143.9330 -6338.2505
ENERGY: 300 126.6697 639.5608 2916.2565 0.0000 -186096.3054 16446.5569 481.3790 0.0000 0.0000 -165485.8825 0.0000 -165485.8825 -165485.8825 0.0000 13208.1107 -6342.5009 534946.2959 13208.1107 -6342.5009
TCL: Setting parameter constraintScaling to 1.25
TCL: Minimizing for 100 steps
ETITLE: TS BOND ANGLE DIHED IMPRP ELECT VDW BOUNDARY MISC KINETIC TOTAL TEMP POTENTIAL TOTAL3 TEMPAVG PRESSURE GPRESSURE VOLUME PRESSAVG GPRESSAVG
ENERGY: 300 126.6697 639.5608 2916.2565 0.0000 -186096.3054 16446.5569 240.6895 0.0000 0.0000 -165726.5720 0.0000 -165726.5720 -165726.5720 0.0000 13656.4674 -26352.6678 534946.2959 13656.4674 -26352.6678
ENERGY: 320 132.1031 624.5917 2911.1506 0.0000 -186667.6115 16580.5218 272.7703 0.0000 0.0000 -166146.4740 0.0000 -166146.4740 -166146.4740 0.0000 13629.9660 -5973.9983 534946.2959 13629.9660 -5973.9983
ENERGY: 340 150.5944 624.6899 2910.6503 0.0000 -187378.6197 16811.7553 296.0582 0.0000 0.0000 -166584.8716 0.0000 -166584.8716 -166584.8716 0.0000 13648.5131 -6010.6671 534946.2959 13648.5131 -6010.6671
ENERGY: 360 312.5016 691.8506 2906.9644 0.0000 -189047.9690 17385.7071 362.5836 0.0000 0.0000 -167388.3616 0.0000 -167388.3616 -167388.3616 0.0000 13883.5947 -6005.9165 534946.2959 13883.5947 -6005.9165
ENERGY: 380 179.8540 658.8306 2901.8379 0.0000 -189883.3768 17715.0782 380.8113 0.0000 0.0000 -168046.9649 0.0000 -168046.9649 -168046.9649 0.0000 13968.6901 -5988.8589 534946.2959 13968.6901 -5988.8589
ENERGY: 400 139.4197 633.4662 2899.7659 0.0000 -190453.7081 17920.7832 394.2054 0.0000 0.0000 -168466.0677 0.0000 -168466.0677 -168466.0677 0.0000 14118.6655 -5923.5605 534946.2959 14118.6655 -5923.5605
TCL: Setting parameter constraintScaling to 0.625
TCL: Minimizing for 100 steps
ETITLE: TS BOND ANGLE DIHED IMPRP ELECT VDW BOUNDARY MISC KINETIC TOTAL TEMP POTENTIAL TOTAL3 TEMPAVG PRESSURE GPRESSURE VOLUME PRESSAVG GPRESSAVG
ENERGY: 400 139.4197 633.4662 2899.7659 0.0000 -190453.7081 17920.7832 197.1027 0.0000 0.0000 -168663.1704 0.0000 -168663.1704 -168663.1704 0.0000 14416.6061 -26610.3422 534946.2959 14416.6061 -26610.3422
ENERGY: 420 148.1530 626.8038 2895.4354 0.0000 -190849.1393 18012.3892 218.1107 0.0000 0.0000 -168948.2473 0.0000 -168948.2473 -168948.2473 0.0000 14349.7472 -5719.4491 534946.2959 14349.7472 -5719.4491
ENERGY: 440 153.7689 626.4612 2894.1999 0.0000 -191393.2177 18183.9817 234.7400 0.0000 0.0000 -169300.0660 0.0000 -169300.0660 -169300.0660 0.0000 14365.4320 -5749.9474 534946.2959 14365.4320 -5749.9474
ENERGY: 460 171.8154 649.5584 2888.2674 0.0000 -192281.4929 18487.7928 261.8288 0.0000 0.0000 -169822.2302 0.0000 -169822.2302 -169822.2302 0.0000 14552.9938 -5702.2819 534946.2959 14552.9938 -5702.2819
ENERGY: 480 142.4051 640.0894 2881.0982 0.0000 -193362.7479 18906.2369 291.9382 0.0000 0.0000 -170500.9800 0.0000 -170500.9800 -170500.9800 0.0000 14716.0715 -5655.6680 534946.2959 14716.0715 -5655.6680
ENERGY: 500 167.3420 640.5553 2884.3085 0.0000 -193935.6888 19130.2928 301.8472 0.0000 0.0000 -170811.3429 0.0000 -170811.3429 -170811.3429 0.0000 14742.0988 -5660.9839 534946.2959 14742.0988 -5660.9839
TCL: Setting parameter constraintScaling to 0.3125
TCL: Minimizing for 100 steps
ETITLE: TS BOND ANGLE DIHED IMPRP ELECT VDW BOUNDARY MISC KINETIC TOTAL TEMP POTENTIAL TOTAL3 TEMPAVG PRESSURE GPRESSURE VOLUME PRESSAVG GPRESSAVG
ENERGY: 500 167.3420 640.5553 2884.3085 0.0000 -193935.6888 19130.2928 150.9236 0.0000 0.0000 -170962.2665 0.0000 -170962.2665 -170962.2665 0.0000 14936.3884 -26911.0654 534946.2959 14936.3884 -26911.0654
ENERGY: 520 147.0165 652.7414 2877.8614 0.0000 -194124.1339 19192.0313 156.2773 0.0000 0.0000 -171098.2059 0.0000 -171098.2059 -171098.2059 0.0000 15033.4929 -5423.7708 534946.2959 15033.4929 -5423.7708
ENERGY: 540 153.8170 652.5653 2872.6596 0.0000 -194782.0109 19420.5485 176.6637 0.0000 0.0000 -171505.7567 0.0000 -171505.7567 -171505.7567 0.0000 15092.4065 -5434.3152 534946.2959 15092.4065 -5434.3152
ENERGY: 560 185.7898 646.8891 2875.1280 0.0000 -195360.1202 19636.6739 188.9292 0.0000 0.0000 -171826.7102 0.0000 -171826.7102 -171826.7102 0.0000 15123.2474 -5438.7688 534946.2959 15123.2474 -5438.7688
ENERGY: 580 244.0694 702.4704 2869.7191 0.0000 -195736.8465 19792.4761 195.0737 0.0000 0.0000 -171933.0378 0.0000 -171933.0378 -171933.0378 0.0000 15184.0182 -5429.0283 534946.2959 15184.0182 -5429.0283
ENERGY: 600 163.3619 648.1096 2866.2532 0.0000 -196349.5411 20008.8008 206.6381 0.0000 0.0000 -172456.3775 0.0000 -172456.3775 -172456.3775 0.0000 15322.5837 -5373.6449 534946.2959 15322.5837 -5373.6449
TCL: Setting parameter constraintScaling to 0.15625
TCL: Minimizing for 100 steps
ETITLE: TS BOND ANGLE DIHED IMPRP ELECT VDW BOUNDARY MISC KINETIC TOTAL TEMP POTENTIAL TOTAL3 TEMPAVG PRESSURE GPRESSURE VOLUME PRESSAVG GPRESSAVG
ENERGY: 600 163.3619 648.1096 2866.2532 0.0000 -196349.5411 20008.8008 103.3190 0.0000 0.0000 -172559.6966 0.0000 -172559.6966 -172559.6966 0.0000 15439.8205 -26973.2479 534946.2959 15439.8205 -26973.2479
ENERGY: 620 258.9282 674.9037 2866.7333 0.0000 -196671.1930 20131.4895 108.3526 0.0000 0.0000 -172630.7856 0.0000 -172630.7856 -172630.7856 0.0000 15490.3646 -5249.5762 534946.2959 15490.3646 -5249.5762
ENERGY: 640 193.7002 701.2210 2870.2525 0.0000 -197215.1011 20322.7468 119.4728 0.0000 0.0000 -173007.7078 0.0000 -173007.7078 -173007.7078 0.0000 15491.8947 -5282.9723 534946.2959 15491.8947 -5282.9723
ENERGY: 660 152.3223 653.6210 2859.2670 0.0000 -197312.5592 20358.2289 118.9882 0.0000 0.0000 -173170.1318 0.0000 -173170.1318 -173170.1318 0.0000 15595.3916 -5217.8444 534946.2959 15595.3916 -5217.8444
ENERGY: 680 269.5079 692.4469 2865.3867 0.0000 -197875.8573 20588.6167 123.9142 0.0000 0.0000 -173335.9848 0.0000 -173335.9848 -173335.9848 0.0000 15696.7788 -5170.5404 534946.2959 15696.7788 -5170.5404
ENERGY: 700 155.7672 671.7240 2858.4745 0.0000 -198736.6164 20915.3216 136.8389 0.0000 0.0000 -173998.4901 0.0000 -173998.4901 -173998.4901 0.0000 15893.8547 -5096.8062 534946.2959 15893.8547 -5096.8062
TCL: Setting parameter constraintScaling to 0.078125
TCL: Minimizing for 100 steps
ETITLE: TS BOND ANGLE DIHED IMPRP ELECT VDW BOUNDARY MISC KINETIC TOTAL TEMP POTENTIAL TOTAL3 TEMPAVG PRESSURE GPRESSURE VOLUME PRESSAVG GPRESSAVG
ENERGY: 700 155.7672 671.7240 2858.4745 0.0000 -198736.6164 20915.3216 68.4195 0.0000 0.0000 -174066.9096 0.0000 -174066.9096 -174066.9096 0.0000 15963.6299 -27013.4798 534946.2959 15963.6299 -27013.4798
ENERGY: 720 168.9820 667.7032 2847.6895 0.0000 -198983.0183 20997.1780 72.1048 0.0000 0.0000 -174229.3608 0.0000 -174229.3608 -174229.3608 0.0000 15938.0565 -5064.7013 534946.2959 15938.0565 -5064.7013
ENERGY: 740 173.9179 651.5281 2845.6440 0.0000 -199490.3416 21179.4378 76.9407 0.0000 0.0000 -174562.8730 0.0000 -174562.8730 -174562.8730 0.0000 15982.0080 -5063.7359 534946.2959 15982.0080 -5063.7359
ENERGY: 760 171.7010 661.6713 2842.3314 0.0000 -199896.7684 21327.5492 80.1372 0.0000 0.0000 -174813.3783 0.0000 -174813.3783 -174813.3783 0.0000 16084.8267 -5022.0491 534946.2959 16084.8267 -5022.0491
ENERGY: 780 163.0402 660.8921 2839.2212 0.0000 -200638.4185 21610.7875 85.6280 0.0000 0.0000 -175278.8495 0.0000 -175278.8495 -175278.8495 0.0000 16215.9843 -4974.3508 534946.2959 16215.9843 -4974.3508
ENERGY: 800 162.1869 651.4194 2839.3945 0.0000 -200789.7900 21672.4568 86.3979 0.0000 0.0000 -175377.9344 0.0000 -175377.9344 -175377.9344 0.0000 16258.9108 -4945.5043 534946.2959 16258.9108 -4945.5043
TCL: Setting parameter constraintScaling to 0.0390625
TCL: Minimizing for 100 steps
ETITLE: TS BOND ANGLE DIHED IMPRP ELECT VDW BOUNDARY MISC KINETIC TOTAL TEMP POTENTIAL TOTAL3 TEMPAVG PRESSURE GPRESSURE VOLUME PRESSAVG GPRESSAVG
ENERGY: 800 162.1869 651.4194 2839.3945 0.0000 -200789.7900 21672.4568 43.1990 0.0000 0.0000 -175421.1334 0.0000 -175421.1334 -175421.1334 0.0000 16299.1507 -27174.4101 534946.2959 16299.1507 -27174.4101
ENERGY: 820 160.7359 653.3126 2835.7475 0.0000 -200910.6894 21708.1663 44.3520 0.0000 0.0000 -175508.3750 0.0000 -175508.3750 -175508.3750 0.0000 16301.4813 -4918.1866 534946.2959 16301.4813 -4918.1866
ENERGY: 840 165.5318 646.4319 2833.1064 0.0000 -201099.7751 21780.8949 45.2664 0.0000 0.0000 -175628.5436 0.0000 -175628.5436 -175628.5436 0.0000 16334.8801 -4907.1984 534946.2959 16334.8801 -4907.1984
ENERGY: 860 201.7702 665.3219 2831.5275 0.0000 -201714.0001 22022.1687 48.4761 0.0000 0.0000 -175944.7357 0.0000 -175944.7357 -175944.7357 0.0000 16430.0464 -4873.5445 534946.2959 16430.0464 -4873.5445
ENERGY: 880 173.1739 668.9795 2829.5182 0.0000 -201957.1761 22114.2410 49.6928 0.0000 0.0000 -176121.5707 0.0000 -176121.5707 -176121.5707 0.0000 16490.8565 -4859.1049 534946.2959 16490.8565 -4859.1049
ENERGY: 900 184.8317 654.3162 2822.3159 0.0000 -202917.8084 22517.2456 53.8050 0.0000 0.0000 -176685.2939 0.0000 -176685.2939 -176685.2939 0.0000 16708.9767 -4753.4216 534946.2959 16708.9767 -4753.4216
TCL: Setting parameter constraintScaling to 0.01953125
TCL: Minimizing for 100 steps
ETITLE: TS BOND ANGLE DIHED IMPRP ELECT VDW BOUNDARY MISC KINETIC TOTAL TEMP POTENTIAL TOTAL3 TEMPAVG PRESSURE GPRESSURE VOLUME PRESSAVG GPRESSAVG
ENERGY: 900 184.8317 654.3162 2822.3159 0.0000 -202917.8084 22517.2456 26.9025 0.0000 0.0000 -176712.1964 0.0000 -176712.1964 -176712.1964 0.0000 16732.0300 -27250.7958 534946.2959 16732.0300 -27250.7958
ENERGY: 920 161.6001 649.2098 2820.9365 0.0000 -203070.9066 22579.1834 27.4648 0.0000 0.0000 -176832.5119 0.0000 -176832.5119 -176832.5119 0.0000 16759.2536 -4715.6969 534946.2959 16759.2536 -4715.6969
ENERGY: 940 353.2666 699.8191 2824.4733 0.0000 -203498.4613 22763.6994 28.8763 0.0000 0.0000 -176828.3266 0.0000 -176828.3266 -176828.3266 0.0000 16768.5467 -4727.7201 534946.2959 16768.5467 -4727.7201
ENERGY: 960 163.3462 655.0699 2816.7648 0.0000 -203796.6001 22883.4868 29.7186 0.0000 0.0000 -177248.2139 0.0000 -177248.2139 -177248.2139 0.0000 16907.8136 -4654.0127 534946.2959 16907.8136 -4654.0127
ENERGY: 980 171.0546 664.1308 2814.5188 0.0000 -203995.2557 22975.4875 29.9994 0.0000 0.0000 -177340.0647 0.0000 -177340.0647 -177340.0647 0.0000 16963.0523 -4624.4869 534946.2959 16963.0523 -4624.4869
ENERGY: 1000 179.1265 664.4895 2815.5066 0.0000 -204325.8413 23113.2308 30.9078 0.0000 0.0000 -177522.5801 0.0000 -177522.5801 -177522.5801 0.0000 17028.9133 -4599.0162 534946.2959 17028.9133 -4599.0162
TCL: Setting parameter constraintScaling to 0
TCL: Minimizing for 5000 steps
ETITLE: TS BOND ANGLE DIHED IMPRP ELECT VDW BOUNDARY MISC KINETIC TOTAL TEMP POTENTIAL TOTAL3 TEMPAVG PRESSURE GPRESSURE VOLUME PRESSAVG GPRESSAVG
ENERGY: 1000 179.1265 664.4895 2815.5066 0.0000 -204325.8412 23113.2308 0.0000 0.0000 0.0000 -177553.4879 0.0000 -177553.4879 -177553.4879 0.0000 17054.1935 -27269.6691 534946.2959 17054.1935 -27269.6691
ENERGY: 2000 169.5050 663.3080 2800.8911 0.0000 -214114.2013 27458.9939 0.0000 0.0000 0.0000 -183021.5032 0.0000 -183021.5032 -183021.5032 0.0000 19345.8978 -3385.6108 534946.2959 19345.8978 -3385.6108
ENERGY: 3000 175.6880 669.9956 2794.2725 0.0000 -217281.5071 28841.5823 0.0000 0.0000 0.0000 -184799.9687 0.0000 -184799.9687 -184799.9687 0.0000 20087.3613 -2972.5760 534946.2959 20087.3613 -2972.5760
ENERGY: 4000 171.5344 668.0115 2792.4625 0.0000 -218586.4850 29325.6587 0.0000 0.0000 0.0000 -185628.8177 0.0000 -185628.8177 -185628.8177 0.0000 20347.2194 -2845.5319 534946.2959 20347.2194 -2845.5319
ENERGY: 5000 173.9003 668.5678 2790.2128 0.0000 -219379.5785 29652.7697 0.0000 0.0000 0.0000 -186094.1279 0.0000 -186094.1279 -186094.1279 0.0000 20508.5583 -2766.5938 534946.2959 20508.5583 -2766.5938
ENERGY: 6000 164.9966 665.4538 2790.2050 0.0000 -219775.7339 29803.8052 0.0000 0.0000 0.0000 -186351.2733 0.0000 -186351.2733 -186351.2733 0.0000 20595.8942 -2723.5763 534946.2959 20595.8942 -2723.5763
