Info: SIMULATION PARAMETERS:
Info: TIMESTEP               2
Info: NUMBER OF STEPS        0
Info: STEPS PER CYCLE        10
Info: PERIODIC CELL BASIS 1  72.449 0 0
Info: PERIODIC CELL BASIS 2  0 93.247 0
Info: PERIODIC CELL BASIS 3  0 0 79.185
Info: PERIODIC CELL CENTER   -0.248 -0.156 -0.047
Info: WRAPPING WATERS AROUND PERIODIC BOUNDARIES ON OUTPUT.
Info: WRAPPING ALL CLUSTERS AROUND PERIODIC BOUNDARIES ON OUTPUT.
Info: FIRST LDB TIMESTEP     50
Info: LAST LDB TIMESTEP     -1
Info: HOM BACKGROUND SCALING 1
Info: PME BACKGROUND SCALING 1
Info: MIN ATOMS PER PATCH    40
Info: INITIAL TEMPERATURE    0
Info: CENTER OF MASS MOVING INITIALLY? NO
Info: DIELECTRIC             1
Info: EXCLUDE                SCALED ONE-FOUR
Info: 1-4 ELECTROSTATICS SCALED BY 0.833333
Info: MODIFIED 1-4 VDW PARAMETERS WILL BE USED
Info: NO DCD TRAJECTORY OUTPUT
Info: NO EXTENDED SYSTEM TRAJECTORY OUTPUT
Info: NO VELOCITY DCD OUTPUT
Info: NO FORCE DCD OUTPUT
Info: OUTPUT FILENAME        ../replicas/rep81/equilibration/eq0
Info: NO RESTART FILE
Info: SWITCHING ACTIVE
Info: SWITCHING ON           10
Info: SWITCHING OFF          12
Info: PAIRLIST DISTANCE      13.5
Info: PAIRLIST SHRINK RATE   0.01
Info: PAIRLIST GROW RATE     0.01
Info: PAIRLIST TRIGGER       0.3
Info: PAIRLISTS PER CYCLE    2
Info: PAIRLISTS ENABLED
Info: MARGIN                 0
Info: HYDROGEN GROUP CUTOFF  2.5
Info: PATCH DIMENSION        16
Info: ENERGY OUTPUT STEPS    500
Info: CROSSTERM ENERGY INCLUDED IN DIHEDRAL
Info: TIMING OUTPUT STEPS    5000
Info: PRESSURE OUTPUT STEPS  500
Info: HARMONIC CONSTRAINTS ACTIVE
Info: HARMONIC CONS EXP      2
Info: HARMONIC CONS SCALING  10
Info: CONJUGATE GRADIENT MINIMIZATION ACTIVE
Info: LINE MINIMIZATION GOAL = 0.001
Info: BABY STEP SIZE = 0.01
Info: TINY STEP SIZE = 1e-06
Info: PARTICLE MESH EWALD (PME) ACTIVE
Info: PME TOLERANCE               1e-06
Info: PME EWALD COEFFICIENT       0.257952
Info: PME INTERPOLATION ORDER     4
Info: PME GRID DIMENSIONS         80 96 80
Info: PME MAXIMUM GRID SPACING    1
Info: FULL ELECTROSTATIC EVALUATION FREQUENCY      2
Info: USING VERLET I (r-RESPA) MTS SCHEME.
Info: C1 SPLITTING OF LONG RANGE ELECTROSTATICS
Info: PLACING ATOMS IN PATCHES BY HYDROGEN GROUPS
Info: RIGID BONDS TO HYDROGEN : ALL
Info:         ERROR TOLERANCE : 1e-05
Info:          MAX ITERATIONS : 100
Info: RIGID WATER USING SETTLE ALGORITHM
Info: RANDOM NUMBER SEED     1503692024
Info: USE HYDROGEN BONDS?    NO
Info: Using AMBER format force field!
Info: AMBER PARM FILE        ../build/complex.top
Info: COORDINATE PDB         ../build/complex.pdb
Info: Exclusions in PARM file will be ignored!
Info: SCNB (VDW SCALING)     2
Info: USING ARITHMETIC MEAN TO COMBINE L-J SIGMA PARAMETERS
Info: SUMMARY OF PARAMETERS:
Info: 71 BONDS
Info: 145 ANGLES
Info: 76 DIHEDRAL
Info: 0 IMPROPER
Info: 0 CROSSTERM
Info: 0 VDW
Info: 190 VDW_PAIRS
Info: 0 NBTHOLE_PAIRS
Info: STRUCTURE SUMMARY:
Info: 49394 ATOMS
Info: 49448 BONDS
Info: 8698 ANGLES
Info: 18780 DIHEDRALS
Info: 0 IMPROPERS
Info: 0 CROSSTERMS
Info: 0 EXCLUSIONS
Info: 2336 CONSTRAINTS
Info: 47058 RIGID BONDS
Info: 101124 DEGREES OF FREEDOM
Info: 17225 HYDROGEN GROUPS
Info: 4 ATOMS IN LARGEST HYDROGEN GROUP
Info: 17225 MIGRATION GROUPS
Info: 4 ATOMS IN LARGEST MIGRATION GROUP
Info: TOTAL MASS = 301478 amu
Info: TOTAL CHARGE = 1.00115e-05 e
Info: MASS DENSITY = 0.935846 g/cm^3
Info: ATOM DENSITY = 0.0923345 atoms/A^3
Info: ADDED 70656 IMPLICIT EXCLUSIONS
Info: NONBONDED TABLE R-SQUARED SPACING: 0.0625
Info: NONBONDED TABLE SIZE: 769 POINTS
Info: REMOVING COM VELOCITY 0 0 0
TCL: Minimizing for 100 steps
ETITLE: TS BOND ANGLE DIHED IMPRP ELECT VDW BOUNDARY MISC KINETIC TOTAL TEMP POTENTIAL TOTAL3 TEMPAVG PRESSURE GPRESSURE VOLUME PRESSAVG GPRESSAVG
ENERGY: 0 155.4176 1012.2698 2855.7272 0.0000 -154496.7910 207729.2052 0.0468 0.0000 0.0000 57255.8756 0.0000 57255.8756 57255.8756 0.0000 116350.2532 86546.1670 534946.2959 116350.2532 86546.1670
ENERGY: 20 304.7535 935.7910 2893.4663 0.0000 -158672.9392 17936.6600 143.9453 0.0000 0.0000 -136458.3230 0.0000 -136458.3230 -136458.3230 0.0000 16523.9394 -239.4550 534946.2959 16523.9394 -239.4550
ENERGY: 40 198.7420 799.5724 2896.9273 0.0000 -162811.4541 16417.9534 221.3029 0.0000 0.0000 -142276.9562 0.0000 -142276.9562 -142276.9562 0.0000 15011.2701 -2135.4701 534946.2959 15011.2701 -2135.4701
ENERGY: 60 130.5285 715.3440 2898.2165 0.0000 -167496.1556 15446.7542 315.2796 0.0000 0.0000 -147990.0328 0.0000 -147990.0328 -147990.0328 0.0000 13793.8841 -3799.3982 534946.2959 13793.8841 -3799.3982
ENERGY: 80 431.2759 765.6313 2904.3783 0.0000 -169937.5238 15121.1530 372.0120 0.0000 0.0000 -150343.0731 0.0000 -150343.0731 -150343.0731 0.0000 13270.3323 -4577.2434 534946.2959 13270.3323 -4577.2434
ENERGY: 100 119.3888 710.0604 2905.2588 0.0000 -171259.7164 14991.7866 387.3612 0.0000 0.0000 -152145.8607 0.0000 -152145.8607 -152145.8607 0.0000 13056.2648 -4908.1739 534946.2959 13056.2648 -4908.1739
TCL: Setting parameter constraintScaling to 5.0
TCL: Minimizing for 100 steps
ETITLE: TS BOND ANGLE DIHED IMPRP ELECT VDW BOUNDARY MISC KINETIC TOTAL TEMP POTENTIAL TOTAL3 TEMPAVG PRESSURE GPRESSURE VOLUME PRESSAVG GPRESSAVG
ENERGY: 100 119.3888 710.0604 2905.2588 0.0000 -171259.7164 14991.7866 193.6806 0.0000 0.0000 -152339.5413 0.0000 -152339.5413 -152339.5413 0.0000 13672.7709 -23021.8196 534946.2959 13672.7709 -23021.8196
ENERGY: 120 166.4514 692.2081 2910.8259 0.0000 -172914.7701 14833.3504 281.9272 0.0000 0.0000 -154030.0070 0.0000 -154030.0070 -154030.0070 0.0000 13225.2908 -4913.0027 534946.2959 13225.2908 -4913.0027
ENERGY: 140 225.1436 696.9093 2912.9610 0.0000 -174149.5708 14732.6698 321.1884 0.0000 0.0000 -155260.6987 0.0000 -155260.6987 -155260.6987 0.0000 12997.6160 -5265.6766 534946.2959 12997.6160 -5265.6766
ENERGY: 160 270.3300 684.1803 2923.2965 0.0000 -176285.2645 14758.1462 383.2835 0.0000 0.0000 -157266.0280 0.0000 -157266.0280 -157266.0280 0.0000 12739.4556 -5745.5301 534946.2959 12739.4556 -5745.5301
ENERGY: 180 172.6624 724.9588 2929.2193 0.0000 -179193.1869 15054.2695 478.3659 0.0000 0.0000 -159833.7111 0.0000 -159833.7111 -159833.7111 0.0000 12525.3593 -6233.6774 534946.2959 12525.3593 -6233.6774
ENERGY: 200 239.7749 694.0985 2941.4063 0.0000 -181558.6267 15587.5578 546.3376 0.0000 0.0000 -161549.4515 0.0000 -161549.4515 -161549.4515 0.0000 12582.6830 -6424.7249 534946.2959 12582.6830 -6424.7249
TCL: Setting parameter constraintScaling to 2.5
TCL: Minimizing for 100 steps
ETITLE: TS BOND ANGLE DIHED IMPRP ELECT VDW BOUNDARY MISC KINETIC TOTAL TEMP POTENTIAL TOTAL3 TEMPAVG PRESSURE GPRESSURE VOLUME PRESSAVG GPRESSAVG
ENERGY: 200 239.7749 694.0985 2941.4063 0.0000 -181558.6267 15587.5578 273.1688 0.0000 0.0000 -161822.6203 0.0000 -161822.6203 -161822.6203 0.0000 13229.6772 -25655.8847 534946.2959 13229.6772 -25655.8847
ENERGY: 220 245.1766 676.0264 2932.9758 0.0000 -182071.9291 15473.5811 336.6509 0.0000 0.0000 -162407.5182 0.0000 -162407.5182 -162407.5182 0.0000 12975.4536 -6085.8871 534946.2959 12975.4536 -6085.8871
ENERGY: 240 153.6855 693.8927 2928.7715 0.0000 -182681.2932 15530.1946 346.9414 0.0000 0.0000 -163027.8074 0.0000 -163027.8074 -163027.8074 0.0000 13034.1087 -6131.0355 534946.2959 13034.1087 -6131.0355
ENERGY: 260 233.9442 705.5388 2922.3953 0.0000 -183761.3262 15759.2806 380.3252 0.0000 0.0000 -163759.8421 0.0000 -163759.8421 -163759.8421 0.0000 13013.6201 -6241.1744 534946.2959 13013.6201 -6241.1744
ENERGY: 280 168.7959 701.2926 2917.5032 0.0000 -185420.5979 16226.3490 455.9774 0.0000 0.0000 -164950.6797 0.0000 -164950.6797 -164950.6797 0.0000 13139.8796 -6341.7323 534946.2959 13139.8796 -6341.7323
ENERGY: 300 126.9897 639.6691 2916.1668 0.0000 -186091.9131 16443.8853 482.0570 0.0000 0.0000 -165483.1452 0.0000 -165483.1452 -165483.1452 0.0000 13205.6001 -6344.4654 534946.2959 13205.6001 -6344.4654
TCL: Setting parameter constraintScaling to 1.25
TCL: Minimizing for 100 steps
ETITLE: TS BOND ANGLE DIHED IMPRP ELECT VDW BOUNDARY MISC KINETIC TOTAL TEMP POTENTIAL TOTAL3 TEMPAVG PRESSURE GPRESSURE VOLUME PRESSAVG GPRESSAVG
ENERGY: 300 126.9897 639.6691 2916.1668 0.0000 -186091.9131 16443.8853 241.0285 0.0000 0.0000 -165724.1737 0.0000 -165724.1737 -165724.1737 0.0000 13654.2252 -26354.0222 534946.2959 13654.2252 -26354.0222
ENERGY: 320 148.4718 635.2589 2911.2486 0.0000 -186779.9184 16610.1651 282.0415 0.0000 0.0000 -166192.7324 0.0000 -166192.7324 -166192.7324 0.0000 13614.0929 -5997.6968 534946.2959 13614.0929 -5997.6968
ENERGY: 340 137.1062 624.5733 2909.3280 0.0000 -187209.7851 16758.8847 287.9515 0.0000 0.0000 -166491.9413 0.0000 -166491.9413 -166491.9413 0.0000 13694.3646 -5971.5727 534946.2959 13694.3646 -5971.5727
ENERGY: 360 184.9951 664.8843 2907.2876 0.0000 -188607.4610 17230.2537 340.2289 0.0000 0.0000 -167279.8114 0.0000 -167279.8114 -167279.8114 0.0000 13846.7961 -5996.9333 534946.2959 13846.7961 -5996.9333
ENERGY: 380 200.9102 648.5537 2901.6933 0.0000 -190287.4365 17884.2322 396.5479 0.0000 0.0000 -168255.4992 0.0000 -168255.4992 -168255.4992 0.0000 14005.0275 -5985.4292 534946.2959 14005.0275 -5985.4292
ENERGY: 400 140.2673 652.4507 2902.0303 0.0000 -190507.4974 17931.9169 395.6630 0.0000 0.0000 -168485.1691 0.0000 -168485.1691 -168485.1691 0.0000 14126.8653 -5932.2059 534946.2959 14126.8653 -5932.2059
TCL: Setting parameter constraintScaling to 0.625
TCL: Minimizing for 100 steps
ETITLE: TS BOND ANGLE DIHED IMPRP ELECT VDW BOUNDARY MISC KINETIC TOTAL TEMP POTENTIAL TOTAL3 TEMPAVG PRESSURE GPRESSURE VOLUME PRESSAVG GPRESSAVG
ENERGY: 400 140.2673 652.4507 2902.0303 0.0000 -190507.4974 17931.9169 197.8315 0.0000 0.0000 -168683.0006 0.0000 -168683.0006 -168683.0006 0.0000 14425.4178 -26613.4840 534946.2959 14425.4178 -26613.4840
ENERGY: 420 179.4428 643.8994 2899.2970 0.0000 -190820.8282 18011.9977 213.5819 0.0000 0.0000 -168872.6093 0.0000 -168872.6093 -168872.6093 0.0000 14326.1528 -5729.7242 534946.2959 14326.1528 -5729.7242
ENERGY: 440 171.0681 645.0531 2892.2644 0.0000 -191457.0599 18194.8059 241.5979 0.0000 0.0000 -169312.2704 0.0000 -169312.2704 -169312.2704 0.0000 14378.7684 -5758.9249 534946.2959 14378.7684 -5758.9249
ENERGY: 460 145.8859 639.6420 2886.2538 0.0000 -192125.8459 18428.4092 260.8051 0.0000 0.0000 -169764.8500 0.0000 -169764.8500 -169764.8500 0.0000 14498.7206 -5727.4737 534946.2959 14498.7206 -5727.4737
ENERGY: 480 151.3368 642.7825 2891.6072 0.0000 -192841.7656 18700.0471 278.8813 0.0000 0.0000 -170177.1108 0.0000 -170177.1108 -170177.1108 0.0000 14588.6931 -5705.3639 534946.2959 14588.6931 -5705.3639
ENERGY: 500 159.9572 639.3626 2881.1190 0.0000 -193302.4647 18879.7101 285.6847 0.0000 0.0000 -170456.6311 0.0000 -170456.6311 -170456.6311 0.0000 14668.3120 -5674.7233 534946.2959 14668.3120 -5674.7233
TCL: Setting parameter constraintScaling to 0.3125
TCL: Minimizing for 100 steps
ETITLE: TS BOND ANGLE DIHED IMPRP ELECT VDW BOUNDARY MISC KINETIC TOTAL TEMP POTENTIAL TOTAL3 TEMPAVG PRESSURE GPRESSURE VOLUME PRESSAVG GPRESSAVG
ENERGY: 500 159.9572 639.3626 2881.1190 0.0000 -193302.4647 18879.7101 142.8423 0.0000 0.0000 -170599.4735 0.0000 -170599.4735 -170599.4735 0.0000 14855.8191 -26842.9190 534946.2959 14855.8191 -26842.9190
ENERGY: 520 168.3085 649.3784 2881.1482 0.0000 -193826.5683 19053.8023 159.4038 0.0000 0.0000 -170914.5271 0.0000 -170914.5271 -170914.5271 0.0000 14890.3368 -5509.9543 534946.2959 14890.3368 -5509.9543
ENERGY: 540 286.5427 721.6758 2876.7732 0.0000 -194743.5735 19403.7819 181.0875 0.0000 0.0000 -171273.7124 0.0000 -171273.7124 -171273.7124 0.0000 15052.1425 -5459.2869 534946.2959 15052.1425 -5459.2869
ENERGY: 560 154.4870 640.9815 2873.1018 0.0000 -194657.7035 19362.9268 178.9775 0.0000 0.0000 -171447.2291 0.0000 -171447.2291 -171447.2291 0.0000 15022.0715 -5471.0945 534946.2959 15022.0715 -5471.0945
ENERGY: 580 206.7384 663.3412 2875.8608 0.0000 -195217.9520 19571.6225 188.8260 0.0000 0.0000 -171711.5631 0.0000 -171711.5631 -171711.5631 0.0000 15118.4534 -5444.6042 534946.2959 15118.4534 -5444.6042
ENERGY: 600 171.1215 650.3468 2870.9636 0.0000 -195708.7073 19763.0710 195.5124 0.0000 0.0000 -172057.6919 0.0000 -172057.6919 -172057.6919 0.0000 15209.1764 -5405.9867 534946.2959 15209.1764 -5405.9867
TCL: Setting parameter constraintScaling to 0.15625
TCL: Minimizing for 100 steps
ETITLE: TS BOND ANGLE DIHED IMPRP ELECT VDW BOUNDARY MISC KINETIC TOTAL TEMP POTENTIAL TOTAL3 TEMPAVG PRESSURE GPRESSURE VOLUME PRESSAVG GPRESSAVG
ENERGY: 600 171.1215 650.3468 2870.9636 0.0000 -195708.7073 19763.0710 97.7562 0.0000 0.0000 -172155.4482 0.0000 -172155.4482 -172155.4482 0.0000 15322.8885 -26939.2576 534946.2959 15322.8885 -26939.2576
ENERGY: 620 175.9352 657.1289 2873.9565 0.0000 -196098.9189 19892.8426 106.2077 0.0000 0.0000 -172392.8479 0.0000 -172392.8479 -172392.8479 0.0000 15345.5520 -5311.6447 534946.2959 15345.5520 -5311.6447
ENERGY: 640 169.6052 684.1488 2867.0281 0.0000 -196867.4059 20187.0911 118.6879 0.0000 0.0000 -172840.8448 0.0000 -172840.8448 -172840.8448 0.0000 15491.9857 -5264.2749 534946.2959 15491.9857 -5264.2749
ENERGY: 660 192.6075 661.9256 2866.3596 0.0000 -197055.5071 20253.3061 121.0290 0.0000 0.0000 -172960.2793 0.0000 -172960.2793 -172960.2793 0.0000 15497.0951 -5269.6026 534946.2959 15497.0951 -5269.6026
ENERGY: 680 170.0967 654.7378 2857.4764 0.0000 -197671.4405 20493.0941 125.5952 0.0000 0.0000 -173370.4403 0.0000 -173370.4403 -173370.4403 0.0000 15634.2118 -5208.3812 534946.2959 15634.2118 -5208.3812
ENERGY: 700 200.7563 678.8796 2858.7852 0.0000 -198368.6368 20773.4074 133.5088 0.0000 0.0000 -173723.2994 0.0000 -173723.2994 -173723.2994 0.0000 15777.7805 -5153.4743 534946.2959 15777.7805 -5153.4743
TCL: Setting parameter constraintScaling to 0.078125
TCL: Minimizing for 100 steps
ETITLE: TS BOND ANGLE DIHED IMPRP ELECT VDW BOUNDARY MISC KINETIC TOTAL TEMP POTENTIAL TOTAL3 TEMPAVG PRESSURE GPRESSURE VOLUME PRESSAVG GPRESSAVG
ENERGY: 700 200.7563 678.8796 2858.7852 0.0000 -198368.6368 20773.4074 66.7544 0.0000 0.0000 -173790.0538 0.0000 -173790.0538 -173790.0538 0.0000 15846.9806 -27049.2706 534946.2959 15846.9806 -27049.2706
ENERGY: 720 165.3259 647.9551 2853.1917 0.0000 -198506.3315 20813.9400 69.2577 0.0000 0.0000 -173956.6612 0.0000 -173956.6612 -173956.6612 0.0000 15837.3520 -5098.3763 534946.2959 15837.3520 -5098.3763
ENERGY: 740 249.5458 678.5481 2852.7651 0.0000 -199010.4851 21000.7430 74.9205 0.0000 0.0000 -174153.9626 0.0000 -174153.9626 -174153.9626 0.0000 15912.0538 -5089.2160 534946.2959 15912.0538 -5089.2160
ENERGY: 760 184.3573 670.1736 2850.7150 0.0000 -199314.6525 21104.5068 77.4205 0.0000 0.0000 -174427.4792 0.0000 -174427.4792 -174427.4792 0.0000 15957.2038 -5074.0045 534946.2959 15957.2038 -5074.0045
ENERGY: 780 167.9133 654.8737 2844.7336 0.0000 -200047.8362 21386.0000 80.3282 0.0000 0.0000 -174913.9874 0.0000 -174913.9874 -174913.9874 0.0000 16144.1307 -4987.5457 534946.2959 16144.1307 -4987.5457
ENERGY: 800 158.7852 649.7791 2837.2230 0.0000 -200919.3834 21734.8634 89.1852 0.0000 0.0000 -175449.5475 0.0000 -175449.5475 -175449.5475 0.0000 16286.3253 -4935.4849 534946.2959 16286.3253 -4935.4849
TCL: Setting parameter constraintScaling to 0.0390625
TCL: Minimizing for 100 steps
ETITLE: TS BOND ANGLE DIHED IMPRP ELECT VDW BOUNDARY MISC KINETIC TOTAL TEMP POTENTIAL TOTAL3 TEMPAVG PRESSURE GPRESSURE VOLUME PRESSAVG GPRESSAVG
ENERGY: 800 158.7852 649.7791 2837.2230 0.0000 -200919.3834 21734.8634 44.5926 0.0000 0.0000 -175494.1401 0.0000 -175494.1401 -175494.1401 0.0000 16327.6163 -27181.7154 534946.2959 16327.6163 -27181.7154
ENERGY: 820 169.0244 649.9738 2833.4146 0.0000 -201168.6573 21825.6823 46.4619 0.0000 0.0000 -175644.1003 0.0000 -175644.1003 -175644.1003 0.0000 16359.5250 -4891.8877 534946.2959 16359.5250 -4891.8877
ENERGY: 840 312.6285 685.4252 2829.7729 0.0000 -201897.5356 22122.6939 51.1325 0.0000 0.0000 -175895.8826 0.0000 -175895.8826 -175895.8826 0.0000 16473.8381 -4865.8243 534946.2959 16473.8381 -4865.8243
ENERGY: 860 292.3700 695.1050 2831.7097 0.0000 -202083.3852 22175.8523 50.4909 0.0000 0.0000 -176037.8572 0.0000 -176037.8572 -176037.8572 0.0000 16519.2689 -4843.2298 534946.2959 16519.2689 -4843.2298
ENERGY: 880 187.6439 679.5908 2836.9022 0.0000 -202709.3077 22443.2283 52.3467 0.0000 0.0000 -176509.5959 0.0000 -176509.5959 -176509.5959 0.0000 16688.4819 -4747.8300 534946.2959 16688.4819 -4747.8300
ENERGY: 900 156.4294 651.3103 2825.0993 0.0000 -202753.6770 22451.7365 52.9412 0.0000 0.0000 -176616.1603 0.0000 -176616.1603 -176616.1603 0.0000 16703.3282 -4740.4784 534946.2959 16703.3282 -4740.4784
TCL: Setting parameter constraintScaling to 0.01953125
TCL: Minimizing for 100 steps
ETITLE: TS BOND ANGLE DIHED IMPRP ELECT VDW BOUNDARY MISC KINETIC TOTAL TEMP POTENTIAL TOTAL3 TEMPAVG PRESSURE GPRESSURE VOLUME PRESSAVG GPRESSAVG
ENERGY: 900 156.4294 651.3103 2825.0993 0.0000 -202753.6770 22451.7365 26.4706 0.0000 0.0000 -176642.6309 0.0000 -176642.6309 -176642.6309 0.0000 16726.3744 -27222.7500 534946.2959 16726.3744 -27222.7500
ENERGY: 920 277.9048 664.6921 2822.1712 0.0000 -203115.9825 22600.5379 28.2625 0.0000 0.0000 -176722.4139 0.0000 -176722.4139 -176722.4139 0.0000 16719.9040 -4743.2999 534946.2959 16719.9040 -4743.2999
ENERGY: 940 309.3911 674.8882 2817.7329 0.0000 -203607.3420 22808.9040 29.7851 0.0000 0.0000 -176966.6408 0.0000 -176966.6408 -176966.6408 0.0000 16838.8636 -4693.5181 534946.2959 16838.8636 -4693.5181
ENERGY: 960 167.0745 659.0887 2818.3273 0.0000 -203624.3011 22804.3803 29.5159 0.0000 0.0000 -177145.9144 0.0000 -177145.9144 -177145.9144 0.0000 16869.4992 -4675.7975 534946.2959 16869.4992 -4675.7975
ENERGY: 980 170.4322 653.2210 2817.9568 0.0000 -204046.3459 22989.0665 30.2622 0.0000 0.0000 -177385.4073 0.0000 -177385.4073 -177385.4073 0.0000 16982.7001 -4612.5993 534946.2959 16982.7001 -4612.5993
ENERGY: 1000 198.2743 657.3216 2814.2307 0.0000 -205025.1455 23450.6263 33.4877 0.0000 0.0000 -177871.2049 0.0000 -177871.2049 -177871.2049 0.0000 17178.3989 -4520.1372 534946.2959 17178.3989 -4520.1372
TCL: Setting parameter constraintScaling to 0
TCL: Minimizing for 5000 steps
ETITLE: TS BOND ANGLE DIHED IMPRP ELECT VDW BOUNDARY MISC KINETIC TOTAL TEMP POTENTIAL TOTAL3 TEMPAVG PRESSURE GPRESSURE VOLUME PRESSAVG GPRESSAVG
ENERGY: 1000 198.2743 657.3216 2814.2307 0.0000 -205025.1455 23450.6263 0.0000 0.0000 0.0000 -177904.6926 0.0000 -177904.6926 -177904.6926 0.0000 17205.0888 -27285.2612 534946.2959 17205.0888 -27285.2612
ENERGY: 2000 167.1099 661.5200 2802.6352 0.0000 -214404.5040 27652.5662 0.0000 0.0000 0.0000 -183120.6726 0.0000 -183120.6726 -183120.6726 0.0000 19471.3614 -3288.0147 534946.2959 19471.3614 -3288.0147
ENERGY: 3000 166.9055 666.1746 2794.8129 0.0000 -217447.7864 28893.8040 0.0000 0.0000 0.0000 -184926.0894 0.0000 -184926.0894 -184926.0894 0.0000 20115.0639 -2975.0216 534946.2959 20115.0639 -2975.0216
ENERGY: 4000 182.0756 668.3925 2792.7206 0.0000 -218774.3851 29445.6465 0.0000 0.0000 0.0000 -185685.5498 0.0000 -185685.5498 -185685.5498 0.0000 20413.8810 -2806.8539 534946.2959 20413.8810 -2806.8539
ENERGY: 5000 173.9079 666.1823 2793.4203 0.0000 -219451.7510 29707.6319 0.0000 0.0000 0.0000 -186110.6087 0.0000 -186110.6087 -186110.6087 0.0000 20553.7254 -2739.7701 534946.2959 20553.7254 -2739.7701
ENERGY: 6000 165.0187 664.8936 2789.8739 0.0000 -219789.2961 29825.8460 0.0000 0.0000 0.0000 -186343.6639 0.0000 -186343.6639 -186343.6639 0.0000 20612.4337 -2719.8040 534946.2959 20612.4337 -2719.8040
