Info: SIMULATION PARAMETERS:
Info: TIMESTEP               2
Info: NUMBER OF STEPS        0
Info: STEPS PER CYCLE        10
Info: PERIODIC CELL BASIS 1  72.449 0 0
Info: PERIODIC CELL BASIS 2  0 93.247 0
Info: PERIODIC CELL BASIS 3  0 0 79.185
Info: PERIODIC CELL CENTER   -0.248 -0.156 -0.047
Info: WRAPPING WATERS AROUND PERIODIC BOUNDARIES ON OUTPUT.
Info: WRAPPING ALL CLUSTERS AROUND PERIODIC BOUNDARIES ON OUTPUT.
Info: FIRST LDB TIMESTEP     50
Info: LAST LDB TIMESTEP     -1
Info: HOM BACKGROUND SCALING 1
Info: PME BACKGROUND SCALING 1
Info: MIN ATOMS PER PATCH    40
Info: INITIAL TEMPERATURE    0
Info: CENTER OF MASS MOVING INITIALLY? NO
Info: DIELECTRIC             1
Info: EXCLUDE                SCALED ONE-FOUR
Info: 1-4 ELECTROSTATICS SCALED BY 0.833333
Info: MODIFIED 1-4 VDW PARAMETERS WILL BE USED
Info: NO DCD TRAJECTORY OUTPUT
Info: NO EXTENDED SYSTEM TRAJECTORY OUTPUT
Info: NO VELOCITY DCD OUTPUT
Info: NO FORCE DCD OUTPUT
Info: OUTPUT FILENAME        ../replicas/rep59/equilibration/eq0
Info: NO RESTART FILE
Info: SWITCHING ACTIVE
Info: SWITCHING ON           10
Info: SWITCHING OFF          12
Info: PAIRLIST DISTANCE      13.5
Info: PAIRLIST SHRINK RATE   0.01
Info: PAIRLIST GROW RATE     0.01
Info: PAIRLIST TRIGGER       0.3
Info: PAIRLISTS PER CYCLE    2
Info: PAIRLISTS ENABLED
Info: MARGIN                 0
Info: HYDROGEN GROUP CUTOFF  2.5
Info: PATCH DIMENSION        16
Info: ENERGY OUTPUT STEPS    500
Info: CROSSTERM ENERGY INCLUDED IN DIHEDRAL
Info: TIMING OUTPUT STEPS    5000
Info: PRESSURE OUTPUT STEPS  500
Info: HARMONIC CONSTRAINTS ACTIVE
Info: HARMONIC CONS EXP      2
Info: HARMONIC CONS SCALING  10
Info: CONJUGATE GRADIENT MINIMIZATION ACTIVE
Info: LINE MINIMIZATION GOAL = 0.001
Info: BABY STEP SIZE = 0.01
Info: TINY STEP SIZE = 1e-06
Info: PARTICLE MESH EWALD (PME) ACTIVE
Info: PME TOLERANCE               1e-06
Info: PME EWALD COEFFICIENT       0.257952
Info: PME INTERPOLATION ORDER     4
Info: PME GRID DIMENSIONS         80 96 80
Info: PME MAXIMUM GRID SPACING    1
Info: FULL ELECTROSTATIC EVALUATION FREQUENCY      2
Info: USING VERLET I (r-RESPA) MTS SCHEME.
Info: C1 SPLITTING OF LONG RANGE ELECTROSTATICS
Info: PLACING ATOMS IN PATCHES BY HYDROGEN GROUPS
Info: RIGID BONDS TO HYDROGEN : ALL
Info:         ERROR TOLERANCE : 1e-05
Info:          MAX ITERATIONS : 100
Info: RIGID WATER USING SETTLE ALGORITHM
Info: RANDOM NUMBER SEED     1503690981
Info: USE HYDROGEN BONDS?    NO
Info: Using AMBER format force field!
Info: AMBER PARM FILE        ../build/complex.top
Info: COORDINATE PDB         ../build/complex.pdb
Info: Exclusions in PARM file will be ignored!
Info: SCNB (VDW SCALING)     2
Info: USING ARITHMETIC MEAN TO COMBINE L-J SIGMA PARAMETERS
Info: SUMMARY OF PARAMETERS:
Info: 71 BONDS
Info: 145 ANGLES
Info: 76 DIHEDRAL
Info: 0 IMPROPER
Info: 0 CROSSTERM
Info: 0 VDW
Info: 190 VDW_PAIRS
Info: 0 NBTHOLE_PAIRS
Info: STRUCTURE SUMMARY:
Info: 49394 ATOMS
Info: 49448 BONDS
Info: 8698 ANGLES
Info: 18780 DIHEDRALS
Info: 0 IMPROPERS
Info: 0 CROSSTERMS
Info: 0 EXCLUSIONS
Info: 2336 CONSTRAINTS
Info: 47058 RIGID BONDS
Info: 101124 DEGREES OF FREEDOM
Info: 17225 HYDROGEN GROUPS
Info: 4 ATOMS IN LARGEST HYDROGEN GROUP
Info: 17225 MIGRATION GROUPS
Info: 4 ATOMS IN LARGEST MIGRATION GROUP
Info: TOTAL MASS = 301478 amu
Info: TOTAL CHARGE = 1.00115e-05 e
Info: MASS DENSITY = 0.935846 g/cm^3
Info: ATOM DENSITY = 0.0923345 atoms/A^3
Info: ADDED 70656 IMPLICIT EXCLUSIONS
Info: NONBONDED TABLE R-SQUARED SPACING: 0.0625
Info: NONBONDED TABLE SIZE: 769 POINTS
Info: REMOVING COM VELOCITY 0 0 0
TCL: Minimizing for 100 steps
ETITLE: TS BOND ANGLE DIHED IMPRP ELECT VDW BOUNDARY MISC KINETIC TOTAL TEMP POTENTIAL TOTAL3 TEMPAVG PRESSURE GPRESSURE VOLUME PRESSAVG GPRESSAVG
ENERGY: 0 155.4176 1012.2698 2855.7272 0.0000 -154496.7912 207729.2052 0.0468 0.0000 0.0000 57255.8754 0.0000 57255.8754 57255.8754 0.0000 116350.2532 86546.1670 534946.2959 116350.2532 86546.1670
ENERGY: 20 304.7546 935.7911 2893.4663 0.0000 -158672.9401 17936.6596 143.9454 0.0000 0.0000 -136458.3230 0.0000 -136458.3230 -136458.3230 0.0000 16523.9389 -239.4556 534946.2959 16523.9389 -239.4556
ENERGY: 40 198.7431 799.5725 2896.9273 0.0000 -162811.4533 16417.9536 221.3029 0.0000 0.0000 -142276.9538 0.0000 -142276.9538 -142276.9538 0.0000 15011.2703 -2135.4698 534946.2959 15011.2703 -2135.4698
ENERGY: 60 130.5284 715.3440 2898.2166 0.0000 -167496.1558 15446.7541 315.2796 0.0000 0.0000 -147990.0332 0.0000 -147990.0332 -147990.0332 0.0000 13793.8840 -3799.3983 534946.2959 13793.8840 -3799.3983
ENERGY: 80 431.2729 765.6310 2904.3784 0.0000 -169937.5166 15121.1539 372.0120 0.0000 0.0000 -150343.0685 0.0000 -150343.0685 -150343.0685 0.0000 13270.3338 -4577.2407 534946.2959 13270.3338 -4577.2407
ENERGY: 100 129.7166 708.0661 2904.2780 0.0000 -171050.0730 15018.6520 384.2000 0.0000 0.0000 -151905.1604 0.0000 -151905.1604 -151905.1604 0.0000 13092.9114 -4843.6345 534946.2959 13092.9114 -4843.6345
TCL: Setting parameter constraintScaling to 5.0
TCL: Minimizing for 100 steps
ETITLE: TS BOND ANGLE DIHED IMPRP ELECT VDW BOUNDARY MISC KINETIC TOTAL TEMP POTENTIAL TOTAL3 TEMPAVG PRESSURE GPRESSURE VOLUME PRESSAVG GPRESSAVG
ENERGY: 100 129.7166 708.0661 2904.2780 0.0000 -171050.0730 15018.6520 192.1000 0.0000 0.0000 -152097.2604 0.0000 -152097.2604 -152097.2604 0.0000 13703.5067 -22944.4573 534946.2959 13703.5067 -22944.4573
ENERGY: 120 118.6824 680.2878 2909.9066 0.0000 -172396.3288 14830.1195 259.9553 0.0000 0.0000 -153597.3772 0.0000 -153597.3772 -153597.3772 0.0000 13320.9449 -4756.3112 534946.2959 13320.9449 -4756.3112
ENERGY: 140 109.1496 671.1463 2912.0864 0.0000 -174830.3423 14716.1433 337.7329 0.0000 0.0000 -156084.0837 0.0000 -156084.0837 -156084.0837 0.0000 12908.9472 -5423.1665 534946.2959 12908.9472 -5423.1665
ENERGY: 160 303.0511 691.2535 2915.1773 0.0000 -176082.4544 14739.2575 369.8363 0.0000 0.0000 -157063.8788 0.0000 -157063.8788 -157063.8788 0.0000 12780.5580 -5676.1671 534946.2959 12780.5580 -5676.1671
ENERGY: 180 182.2060 640.7473 2917.0629 0.0000 -177289.2661 14805.0466 391.8947 0.0000 0.0000 -158352.3087 0.0000 -158352.3087 -158352.3087 0.0000 12715.3701 -5865.3406 534946.2959 12715.3701 -5865.3406
ENERGY: 200 200.7854 672.8117 2923.8900 0.0000 -179263.2411 15029.7080 438.8894 0.0000 0.0000 -159997.1568 0.0000 -159997.1568 -159997.1568 0.0000 12652.1390 -6141.6943 534946.2959 12652.1390 -6141.6943
TCL: Setting parameter constraintScaling to 2.5
TCL: Minimizing for 100 steps
ETITLE: TS BOND ANGLE DIHED IMPRP ELECT VDW BOUNDARY MISC KINETIC TOTAL TEMP POTENTIAL TOTAL3 TEMPAVG PRESSURE GPRESSURE VOLUME PRESSAVG GPRESSAVG
ENERGY: 200 200.7854 672.8117 2923.8900 0.0000 -179263.2411 15029.7080 219.4447 0.0000 0.0000 -160216.6014 0.0000 -160216.6014 -160216.6014 0.0000 13194.6115 -25226.7322 534946.2959 13194.6115 -25226.7322
ENERGY: 220 129.4630 648.4464 2922.2173 0.0000 -180050.8413 15072.6482 269.1143 0.0000 0.0000 -161008.9520 0.0000 -161008.9520 -161008.9520 0.0000 13073.4453 -5815.4591 534946.2959 13073.4453 -5815.4591
ENERGY: 240 148.7069 630.0501 2922.2752 0.0000 -182011.1250 15361.2889 366.0650 0.0000 0.0000 -162582.7390 0.0000 -162582.7390 -162582.7390 0.0000 12906.9807 -6168.1085 534946.2959 12906.9807 -6168.1085
ENERGY: 260 225.6690 662.3339 2925.6612 0.0000 -183829.5917 15792.7122 453.5778 0.0000 0.0000 -163769.6376 0.0000 -163769.6376 -163769.6376 0.0000 12946.3243 -6340.8419 534946.2959 12946.3243 -6340.8419
ENERGY: 280 203.8821 655.2909 2926.5179 0.0000 -186033.4880 16585.3609 535.3473 0.0000 0.0000 -165127.0889 0.0000 -165127.0889 -165127.0889 0.0000 13153.5202 -6358.6495 534946.2959 13153.5202 -6358.6495
ENERGY: 300 129.0745 634.3602 2921.8455 0.0000 -187695.4192 17313.1935 557.3106 0.0000 0.0000 -166139.6349 0.0000 -166139.6349 -166139.6349 0.0000 13542.8351 -6163.7365 534946.2959 13542.8351 -6163.7365
TCL: Setting parameter constraintScaling to 1.25
TCL: Minimizing for 100 steps
ETITLE: TS BOND ANGLE DIHED IMPRP ELECT VDW BOUNDARY MISC KINETIC TOTAL TEMP POTENTIAL TOTAL3 TEMPAVG PRESSURE GPRESSURE VOLUME PRESSAVG GPRESSAVG
ENERGY: 300 129.0745 634.3602 2921.8455 0.0000 -187695.4192 17313.1935 278.6553 0.0000 0.0000 -166418.2902 0.0000 -166418.2902 -166418.2902 0.0000 14034.1471 -26315.3509 534946.2959 14034.1471 -26315.3509
ENERGY: 320 136.2735 633.1161 2912.4250 0.0000 -188179.3086 17273.0948 319.1421 0.0000 0.0000 -166905.2572 0.0000 -166905.2572 -166905.2572 0.0000 13915.4154 -5857.7739 534946.2959 13915.4154 -5857.7739
ENERGY: 340 217.9189 635.8991 2904.4488 0.0000 -189532.1395 17554.9609 370.5772 0.0000 0.0000 -167848.3346 0.0000 -167848.3346 -167848.3346 0.0000 13905.1180 -6010.0478 534946.2959 13905.1180 -6010.0478
ENERGY: 360 184.2533 634.2181 2905.0659 0.0000 -190191.6647 17799.2591 376.2073 0.0000 0.0000 -168292.6609 0.0000 -168292.6609 -168292.6609 0.0000 14015.7319 -5970.4392 534946.2959 14015.7319 -5970.4392
ENERGY: 380 202.4673 637.2442 2903.1076 0.0000 -191920.1745 18562.8034 381.7758 0.0000 0.0000 -169232.7762 0.0000 -169232.7762 -169232.7762 0.0000 14436.7364 -5755.8532 534946.2959 14436.7364 -5755.8532
ENERGY: 400 144.1157 637.7181 2897.1402 0.0000 -192143.9176 18577.1968 390.9854 0.0000 0.0000 -169496.7615 0.0000 -169496.7615 -169496.7615 0.0000 14426.9056 -5798.3891 534946.2959 14426.9056 -5798.3891
TCL: Setting parameter constraintScaling to 0.625
TCL: Minimizing for 100 steps
ETITLE: TS BOND ANGLE DIHED IMPRP ELECT VDW BOUNDARY MISC KINETIC TOTAL TEMP POTENTIAL TOTAL3 TEMPAVG PRESSURE GPRESSURE VOLUME PRESSAVG GPRESSAVG
ENERGY: 400 144.1157 637.7181 2897.1402 0.0000 -192143.9176 18577.1968 195.4927 0.0000 0.0000 -169692.2542 0.0000 -169692.2542 -169692.2542 0.0000 14721.8889 -26713.4281 534946.2959 14721.8889 -26713.4281
ENERGY: 420 146.0736 637.5799 2890.0677 0.0000 -192571.8733 18669.2258 230.3731 0.0000 0.0000 -169998.5532 0.0000 -169998.5532 -169998.5532 0.0000 14672.4890 -5594.6140 534946.2959 14672.4890 -5594.6140
ENERGY: 440 245.6067 705.0235 2885.3259 0.0000 -193311.5566 18914.0339 263.5432 0.0000 0.0000 -170298.0233 0.0000 -170298.0233 -170298.0233 0.0000 14708.2767 -5655.4423 534946.2959 14708.2767 -5655.4423
ENERGY: 460 165.3229 653.9082 2888.5954 0.0000 -193616.7195 19030.8256 264.3490 0.0000 0.0000 -170613.7185 0.0000 -170613.7185 -170613.7185 0.0000 14803.0428 -5576.1047 534946.2959 14803.0428 -5576.1047
ENERGY: 480 157.5367 638.1089 2883.8460 0.0000 -194599.3631 19416.5347 283.7162 0.0000 0.0000 -171219.6205 0.0000 -171219.6205 -171219.6205 0.0000 14972.2323 -5518.7132 534946.2959 14972.2323 -5518.7132
ENERGY: 500 182.2785 698.0676 2879.5672 0.0000 -195740.8996 19857.3297 338.0060 0.0000 0.0000 -171785.6507 0.0000 -171785.6507 -171785.6507 0.0000 15113.3974 -5511.7038 534946.2959 15113.3974 -5511.7038
TCL: Setting parameter constraintScaling to 0.3125
TCL: Minimizing for 100 steps
ETITLE: TS BOND ANGLE DIHED IMPRP ELECT VDW BOUNDARY MISC KINETIC TOTAL TEMP POTENTIAL TOTAL3 TEMPAVG PRESSURE GPRESSURE VOLUME PRESSAVG GPRESSAVG
ENERGY: 500 182.2785 698.0676 2879.5672 0.0000 -195740.8996 19857.3297 169.0030 0.0000 0.0000 -171954.6537 0.0000 -171954.6537 -171954.6537 0.0000 15315.4123 -26951.8914 534946.2959 15315.4123 -26951.8914
ENERGY: 520 149.4099 637.1908 2874.0552 0.0000 -195869.1719 19899.7514 167.4915 0.0000 0.0000 -172141.2731 0.0000 -172141.2731 -172141.2731 0.0000 15336.9846 -5291.9539 534946.2959 15336.9846 -5291.9539
ENERGY: 540 163.5125 659.5050 2882.2123 0.0000 -196222.1931 20035.8718 174.7303 0.0000 0.0000 -172306.3612 0.0000 -172306.3612 -172306.3612 0.0000 15423.1876 -5263.5113 534946.2959 15423.1876 -5263.5113
ENERGY: 560 156.4268 644.8129 2868.4186 0.0000 -197062.7374 20319.8556 204.0419 0.0000 0.0000 -172869.1817 0.0000 -172869.1817 -172869.1817 0.0000 15491.5907 -5283.3169 534946.2959 15491.5907 -5283.3169
ENERGY: 580 159.3185 645.7517 2865.1061 0.0000 -197418.0129 20454.0102 209.5023 0.0000 0.0000 -173084.3240 0.0000 -173084.3240 -173084.3240 0.0000 15539.0227 -5272.4507 534946.2959 15539.0227 -5272.4507
ENERGY: 600 181.7485 665.8627 2862.6468 0.0000 -198731.4630 20987.7838 228.3256 0.0000 0.0000 -173805.0956 0.0000 -173805.0956 -173805.0956 0.0000 15790.8525 -5169.0893 534946.2959 15790.8525 -5169.0893
TCL: Setting parameter constraintScaling to 0.15625
TCL: Minimizing for 100 steps
ETITLE: TS BOND ANGLE DIHED IMPRP ELECT VDW BOUNDARY MISC KINETIC TOTAL TEMP POTENTIAL TOTAL3 TEMPAVG PRESSURE GPRESSURE VOLUME PRESSAVG GPRESSAVG
ENERGY: 600 181.7485 665.8627 2862.6468 0.0000 -198731.4630 20987.7838 114.1628 0.0000 0.0000 -173919.2584 0.0000 -173919.2584 -173919.2584 0.0000 15914.6818 -27073.8776 534946.2959 15914.6818 -27073.8776
ENERGY: 620 340.4159 690.4222 2858.7544 0.0000 -198999.7430 21067.3817 121.6340 0.0000 0.0000 -173921.1349 0.0000 -173921.1349 -173921.1349 0.0000 15881.4835 -5104.9937 534946.2959 15881.4835 -5104.9937
ENERGY: 640 154.3425 639.7967 2851.3971 0.0000 -199266.5927 21154.7970 127.4755 0.0000 0.0000 -174338.7839 0.0000 -174338.7839 -174338.7839 0.0000 15981.6055 -5045.3019 534946.2959 15981.6055 -5045.3019
ENERGY: 660 165.6941 658.7061 2852.6658 0.0000 -199627.5290 21266.6607 133.5286 0.0000 0.0000 -174550.2738 0.0000 -174550.2738 -174550.2738 0.0000 16026.8439 -5051.3147 534946.2959 16026.8439 -5051.3147
ENERGY: 680 298.5187 695.8912 2848.2604 0.0000 -200802.9118 21752.0520 151.0191 0.0000 0.0000 -175057.1705 0.0000 -175057.1705 -175057.1705 0.0000 16246.0091 -4966.5411 534946.2959 16246.0091 -4966.5411
ENERGY: 700 167.3916 655.8207 2841.4196 0.0000 -201634.3664 22072.6387 166.6315 0.0000 0.0000 -175730.4643 0.0000 -175730.4643 -175730.4643 0.0000 16395.5265 -4911.4572 534946.2959 16395.5265 -4911.4572
TCL: Setting parameter constraintScaling to 0.078125
TCL: Minimizing for 100 steps
ETITLE: TS BOND ANGLE DIHED IMPRP ELECT VDW BOUNDARY MISC KINETIC TOTAL TEMP POTENTIAL TOTAL3 TEMPAVG PRESSURE GPRESSURE VOLUME PRESSAVG GPRESSAVG
ENERGY: 700 167.3916 655.8207 2841.4196 0.0000 -201634.3664 22072.6387 83.3158 0.0000 0.0000 -175813.7801 0.0000 -175813.7801 -175813.7801 0.0000 16472.0196 -27208.7702 534946.2959 16472.0196 -27208.7702
ENERGY: 720 233.7258 674.3356 2835.1770 0.0000 -201895.6035 22179.9933 85.9254 0.0000 0.0000 -175886.4464 0.0000 -175886.4464 -175886.4464 0.0000 16506.6569 -4830.8468 534946.2959 16506.6569 -4830.8468
ENERGY: 740 166.1403 648.2902 2833.4793 0.0000 -202020.4062 22209.9717 87.9787 0.0000 0.0000 -176074.5460 0.0000 -176074.5460 -176074.5460 0.0000 16533.9563 -4820.3063 534946.2959 16533.9563 -4820.3063
ENERGY: 760 156.6821 651.1020 2830.5187 0.0000 -202437.6064 22370.6214 91.2551 0.0000 0.0000 -176337.4272 0.0000 -176337.4272 -176337.4272 0.0000 16619.2804 -4783.3702 534946.2959 16619.2804 -4783.3702
ENERGY: 780 189.3965 664.6009 2829.5798 0.0000 -202975.6634 22575.3437 95.7643 0.0000 0.0000 -176620.9782 0.0000 -176620.9782 -176620.9782 0.0000 16701.6530 -4765.0089 534946.2959 16701.6530 -4765.0089
ENERGY: 800 183.0501 668.6359 2825.5995 0.0000 -203494.9559 22797.9781 100.4367 0.0000 0.0000 -176919.2556 0.0000 -176919.2556 -176919.2556 0.0000 16824.2991 -4689.4164 534946.2959 16824.2991 -4689.4164
TCL: Setting parameter constraintScaling to 0.0390625
TCL: Minimizing for 100 steps
ETITLE: TS BOND ANGLE DIHED IMPRP ELECT VDW BOUNDARY MISC KINETIC TOTAL TEMP POTENTIAL TOTAL3 TEMPAVG PRESSURE GPRESSURE VOLUME PRESSAVG GPRESSAVG
ENERGY: 800 183.0501 668.6359 2825.5995 0.0000 -203494.9559 22797.9781 50.2183 0.0000 0.0000 -176969.4739 0.0000 -176969.4739 -176969.4739 0.0000 16867.2368 -27256.3676 534946.2959 16867.2368 -27256.3676
ENERGY: 820 215.9061 667.6015 2820.7099 0.0000 -203665.8025 22869.0532 51.5145 0.0000 0.0000 -177041.0172 0.0000 -177041.0172 -177041.0172 0.0000 16898.3282 -4644.4915 534946.2959 16898.3282 -4644.4915
ENERGY: 840 171.8742 648.8368 2819.4762 0.0000 -203896.1926 22960.5159 53.0177 0.0000 0.0000 -177242.4718 0.0000 -177242.4718 -177242.4718 0.0000 16942.4223 -4631.0001 534946.2959 16942.4223 -4631.0001
ENERGY: 860 162.4334 648.8903 2817.5007 0.0000 -204260.5826 23114.6513 55.2459 0.0000 0.0000 -177461.8611 0.0000 -177461.8611 -177461.8611 0.0000 17020.5580 -4595.1316 534946.2959 17020.5580 -4595.1316
ENERGY: 880 176.6110 652.3422 2817.7634 0.0000 -204637.2023 23276.9476 56.6256 0.0000 0.0000 -177656.9124 0.0000 -177656.9124 -177656.9124 0.0000 17118.4312 -4541.3428 534946.2959 17118.4312 -4541.3428
ENERGY: 900 174.1120 655.3476 2813.7242 0.0000 -205132.7716 23492.6687 59.7123 0.0000 0.0000 -177937.2069 0.0000 -177937.2069 -177937.2069 0.0000 17218.3437 -4502.0561 534946.2959 17218.3437 -4502.0561
TCL: Setting parameter constraintScaling to 0.01953125
TCL: Minimizing for 100 steps
ETITLE: TS BOND ANGLE DIHED IMPRP ELECT VDW BOUNDARY MISC KINETIC TOTAL TEMP POTENTIAL TOTAL3 TEMPAVG PRESSURE GPRESSURE VOLUME PRESSAVG GPRESSAVG
ENERGY: 900 174.1120 655.3476 2813.7242 0.0000 -205132.7716 23492.6687 29.8561 0.0000 0.0000 -177967.0630 0.0000 -177967.0630 -177967.0630 0.0000 17242.4008 -27272.2880 534946.2959 17242.4008 -27272.2880
ENERGY: 920 273.9746 677.4091 2814.2380 0.0000 -205394.8104 23607.4202 30.8641 0.0000 0.0000 -177990.9045 0.0000 -177990.9045 -177990.9045 0.0000 17256.3403 -4490.5414 534946.2959 17256.3403 -4490.5414
ENERGY: 940 177.6122 653.3078 2810.7895 0.0000 -205740.1939 23752.5722 32.1493 0.0000 0.0000 -178313.7628 0.0000 -178313.7628 -178313.7628 0.0000 17367.8389 -4424.2318 534946.2959 17367.8389 -4424.2318
ENERGY: 960 240.6165 691.1511 2811.4018 0.0000 -205958.9515 23853.7676 32.9553 0.0000 0.0000 -178329.0592 0.0000 -178329.0592 -178329.0592 0.0000 17437.7839 -4371.8559 534946.2959 17437.7839 -4371.8559
ENERGY: 980 178.0119 663.6486 2810.7429 0.0000 -206167.5884 23941.9046 33.5471 0.0000 0.0000 -178539.7333 0.0000 -178539.7333 -178539.7333 0.0000 17459.4362 -4380.3625 534946.2959 17459.4362 -4380.3625
ENERGY: 1000 168.9270 648.1922 2804.7797 0.0000 -206731.4827 24207.4613 35.6255 0.0000 0.0000 -178866.4970 0.0000 -178866.4970 -178866.4970 0.0000 17604.2180 -4295.6234 534946.2959 17604.2180 -4295.6234
TCL: Setting parameter constraintScaling to 0
TCL: Minimizing for 5000 steps
ETITLE: TS BOND ANGLE DIHED IMPRP ELECT VDW BOUNDARY MISC KINETIC TOTAL TEMP POTENTIAL TOTAL3 TEMPAVG PRESSURE GPRESSURE VOLUME PRESSAVG GPRESSAVG
ENERGY: 1000 168.9270 648.1922 2804.7797 0.0000 -206731.4827 24207.4613 0.0000 0.0000 0.0000 -178902.1225 0.0000 -178902.1225 -178902.1225 0.0000 17631.2377 -27263.5054 534946.2959 17631.2377 -27263.5054
ENERGY: 2000 166.9853 664.1355 2802.2723 0.0000 -214775.9669 27857.0770 0.0000 0.0000 0.0000 -183285.4968 0.0000 -183285.4968 -183285.4968 0.0000 19585.1663 -3209.2355 534946.2959 19585.1663 -3209.2355
ENERGY: 3000 217.2894 674.2545 2798.1126 0.0000 -217458.5769 28867.8695 0.0000 0.0000 0.0000 -184901.0508 0.0000 -184901.0508 -184901.0508 0.0000 20087.9752 -2984.5242 534946.2959 20087.9752 -2984.5242
ENERGY: 4000 165.2346 662.7865 2789.6761 0.0000 -218590.1782 29305.2563 0.0000 0.0000 0.0000 -185667.2248 0.0000 -185667.2248 -185667.2248 0.0000 20347.0440 -2857.9157 534946.2959 20347.0440 -2857.9157
ENERGY: 5000 164.4928 661.9609 2789.1510 0.0000 -219405.3866 29661.9078 0.0000 0.0000 0.0000 -186127.8740 0.0000 -186127.8740 -186127.8740 0.0000 20528.4788 -2753.9662 534946.2959 20528.4788 -2753.9662
ENERGY: 6000 165.2579 662.5056 2786.1565 0.0000 -219833.0812 29795.2236 0.0000 0.0000 0.0000 -186423.9376 0.0000 -186423.9376 -186423.9376 0.0000 20597.0964 -2730.2316 534946.2959 20597.0964 -2730.2316
