Info: SIMULATION PARAMETERS:
Info: TIMESTEP               1
Info: NUMBER OF STEPS        0
Info: STEPS PER CYCLE        10
Info: PERIODIC CELL BASIS 1  72.449 0 0
Info: PERIODIC CELL BASIS 2  0 93.247 0
Info: PERIODIC CELL BASIS 3  0 0 79.185
Info: PERIODIC CELL CENTER   -0.248 -0.156 -0.047
Info: WRAPPING WATERS AROUND PERIODIC BOUNDARIES ON OUTPUT.
Info: WRAPPING ALL CLUSTERS AROUND PERIODIC BOUNDARIES ON OUTPUT.
Info: FIRST LDB TIMESTEP     50
Info: LAST LDB TIMESTEP     -1
Info: HOM BACKGROUND SCALING 1
Info: PME BACKGROUND SCALING 1
Info: MIN ATOMS PER PATCH    40
Info: VELOCITY FILE          ../replicas/rep105/equilibration/eq1.vel
Info: CENTER OF MASS MOVING INITIALLY? NO
Info: DIELECTRIC             1
Info: EXCLUDE                SCALED ONE-FOUR
Info: 1-4 ELECTROSTATICS SCALED BY 0.833333
Info: MODIFIED 1-4 VDW PARAMETERS WILL BE USED
Info: DCD FILENAME           ../replicas/rep105/equilibration/eq2.dcd
Info: DCD FREQUENCY          5000
Info: DCD FIRST STEP         5000
Info: DCD FILE WILL CONTAIN UNIT CELL DATA
Info: XST FILENAME           ../replicas/rep105/equilibration/eq2.xst
Info: XST FREQUENCY          5000
Info: NO VELOCITY DCD OUTPUT
Info: NO FORCE DCD OUTPUT
Info: OUTPUT FILENAME        ../replicas/rep105/equilibration/eq2
Info: RESTART FILENAME       ../replicas/rep105/equilibration/eq2.restart
Info: RESTART FREQUENCY      5000
Info: BINARY RESTART FILES WILL BE USED
Info: SWITCHING ACTIVE
Info: SWITCHING ON           10
Info: SWITCHING OFF          12
Info: PAIRLIST DISTANCE      13.5
Info: PAIRLIST SHRINK RATE   0.01
Info: PAIRLIST GROW RATE     0.01
Info: PAIRLIST TRIGGER       0.3
Info: PAIRLISTS PER CYCLE    2
Info: PAIRLISTS ENABLED
Info: MARGIN                 0.48
Info: HYDROGEN GROUP CUTOFF  2.5
Info: PATCH DIMENSION        16.48
Info: ENERGY OUTPUT STEPS    500
Info: CROSSTERM ENERGY INCLUDED IN DIHEDRAL
Info: TIMING OUTPUT STEPS    5000
Info: PRESSURE OUTPUT STEPS  500
Info: HARMONIC CONSTRAINTS ACTIVE
Info: HARMONIC CONS EXP      2
Info: HARMONIC CONS SCALING  10
Info: LANGEVIN DYNAMICS ACTIVE
Info: LANGEVIN TEMPERATURE   300
Info: LANGEVIN USING BBK INTEGRATOR
Info: LANGEVIN DAMPING COEFFICIENT IS 5 INVERSE PS
Info: LANGEVIN DYNAMICS NOT APPLIED TO HYDROGENS
Info: BERENDSEN PRESSURE COUPLING ACTIVE
Info:     TARGET PRESSURE IS 1 BAR
Info:     COMPRESSIBILITY ESTIMATE IS 4.57e-05 BAR^(-1)
Info:     RELAXATION TIME IS 100 FS
Info:     APPLIED EVERY 2 STEPS
Info:     PRESSURE CONTROL IS GROUP-BASED
Info:       CELL FLUCTUATION IS ISOTROPIC
Info: PARTICLE MESH EWALD (PME) ACTIVE
Info: PME TOLERANCE               1e-06
Info: PME EWALD COEFFICIENT       0.257952
Info: PME INTERPOLATION ORDER     4
Info: PME GRID DIMENSIONS         80 96 80
Info: PME MAXIMUM GRID SPACING    1
Info: FULL ELECTROSTATIC EVALUATION FREQUENCY      2
Info: USING VERLET I (r-RESPA) MTS SCHEME.
Info: C1 SPLITTING OF LONG RANGE ELECTROSTATICS
Info: PLACING ATOMS IN PATCHES BY HYDROGEN GROUPS
Info: RIGID BONDS TO HYDROGEN : WATER
Info:         ERROR TOLERANCE : 1e-05
Info:          MAX ITERATIONS : 100
Info: RIGID WATER USING SETTLE ALGORITHM
Info: RANDOM NUMBER SEED     1503712784
Info: USE HYDROGEN BONDS?    NO
Info: Using AMBER format force field!
Info: AMBER PARM FILE        ../build/complex.top
Info: COORDINATE PDB         ../replicas/rep105/equilibration/eq1.coor
Info: Exclusions in PARM file will be ignored!
Info: SCNB (VDW SCALING)     2
Info: USING ARITHMETIC MEAN TO COMBINE L-J SIGMA PARAMETERS
Info: SUMMARY OF PARAMETERS:
Info: 71 BONDS
Info: 145 ANGLES
Info:   145 HARMONIC
Info:   0 COSINE-BASED
Info: 76 DIHEDRAL
Info: 0 IMPROPER
Info: 0 CROSSTERM
Info: 0 VDW
Info: 190 VDW_PAIRS
Info: 0 NBTHOLE_PAIRS
Info: STRUCTURE SUMMARY:
Info: 49394 ATOMS
Info: 49448 BONDS
Info: 8698 ANGLES
Info: 18780 DIHEDRALS
Info: 0 IMPROPERS
Info: 0 CROSSTERMS
Info: 0 EXCLUSIONS
Info: 2336 CONSTRAINTS
Info: 44667 RIGID BONDS
Info: 103515 DEGREES OF FREEDOM
Info: 17225 HYDROGEN GROUPS
Info: 4 ATOMS IN LARGEST HYDROGEN GROUP
Info: 17225 MIGRATION GROUPS
Info: 4 ATOMS IN LARGEST MIGRATION GROUP
Info: TOTAL MASS = 301478 amu
Info: TOTAL CHARGE = 1.00115e-05 e
Info: MASS DENSITY = 0.935846 g/cm^3
Info: ATOM DENSITY = 0.0923345 atoms/A^3
Info: ADDED 70656 IMPLICIT EXCLUSIONS
Info: NONBONDED TABLE R-SQUARED SPACING: 0.0625
Info: NONBONDED TABLE SIZE: 769 POINTS
Info: REMOVING COM VELOCITY -0.022639 0.0088372 -0.0041017
TCL: Running for 5000 steps
ETITLE: TS BOND ANGLE DIHED IMPRP ELECT VDW BOUNDARY MISC KINETIC TOTAL TEMP POTENTIAL TOTAL3 TEMPAVG PRESSURE GPRESSURE VOLUME PRESSAVG GPRESSAVG
ENERGY: 0 399.1948 1211.0045 2920.0258 0.0000 -212973.6488 29847.2383 0.0000 0.0000 10021.4034 -168574.7820 97.4351 -178596.1854 -168565.1245 97.4351 -2235.6878 -2332.7069 534946.2959 -2235.6878 -2332.7069
ENERGY: 1000 1279.4429 1990.0398 3120.8497 0.0000 -193319.0410 26224.9683 773.2720 0.0000 24000.4327 -135930.0357 233.3491 -159930.4683 -135909.4563 219.1051 38.8802 -18.9143 522790.8661 -15.1957 -14.9618
ENERGY: 2000 1477.8614 2100.9340 3133.4375 0.0000 -183811.4050 23225.4876 789.6151 0.0000 27924.5791 -125159.4903 271.5024 -153084.0694 -125131.8115 263.9033 -100.8683 -58.0816 517907.4934 -14.1785 -13.8251
ENERGY: 3000 1548.0260 2209.9234 3141.2230 0.0000 -179268.1120 21573.1105 802.0472 0.0000 29561.9321 -120431.8497 287.4219 -149993.7818 -120381.8440 284.1828 -45.2923 -25.9509 511983.0893 -27.6418 -27.3139
ENERGY: 4000 1551.2141 2249.1995 3146.1059 0.0000 -176367.4172 20559.3158 829.0478 0.0000 30268.4190 -117764.1151 294.2909 -148032.5341 -117724.2672 294.3348 10.0735 -23.8319 506971.3584 -18.0474 -18.1157
ENERGY: 5000 1595.0012 2242.8840 3138.1674 0.0000 -175939.8238 20376.6288 811.6018 0.0000 30816.1795 -116959.3610 299.6166 -147775.5406 -116916.7441 296.9461 13.3537 19.3250 504778.4383 -14.2767 -14.2195
TCL: Setting parameter constraintScaling to 5.0
TCL: Running for 5000 steps
ETITLE: TS BOND ANGLE DIHED IMPRP ELECT VDW BOUNDARY MISC KINETIC TOTAL TEMP POTENTIAL TOTAL3 TEMPAVG PRESSURE GPRESSURE VOLUME PRESSAVG GPRESSAVG
ENERGY: 5000 1595.0012 2242.8840 3138.1674 0.0000 -175939.8238 20376.6288 405.8009 0.0000 30814.1388 -117367.2027 299.5968 -148181.3415 -117323.6836 299.5968 -42.8501 -27.0888 504778.4383 -42.8501 -27.0888
ENERGY: 6000 1574.5302 2312.8647 3155.6260 0.0000 -175555.0935 20159.4828 669.0235 0.0000 30684.8746 -116998.6918 298.3400 -147683.5664 -116956.4143 297.7903 -68.1933 -10.2730 504033.7244 5.8065 6.4928
ENERGY: 7000 1616.3409 2287.2159 3169.6508 0.0000 -175251.7381 20240.6137 643.8058 0.0000 30776.8097 -116517.3014 299.2338 -147294.1111 -116473.2785 299.6953 -100.2480 7.8336 502509.4675 -0.7438 -0.1524
ENERGY: 8000 1583.2133 2345.7345 3146.9163 0.0000 -175300.6984 20106.3059 668.2593 0.0000 30693.2166 -116757.0525 298.4211 -147450.2692 -116709.7124 299.9548 -76.7818 29.3769 502326.5963 2.2708 2.2728
ENERGY: 9000 1559.3611 2260.6060 3176.0241 0.0000 -175708.7094 20070.5716 619.2341 0.0000 30944.4058 -117078.5068 300.8633 -148022.9125 -117032.4634 299.0750 99.3571 -11.6225 501862.0348 4.2445 4.2086
ENERGY: 10000 1534.7197 2334.8489 3159.6277 0.0000 -175552.5034 20122.5853 646.6244 0.0000 30810.0399 -116944.0574 299.5569 -147754.0974 -116894.0363 300.0492 71.7355 50.0621 501702.7346 3.0448 2.7013
TCL: Setting parameter constraintScaling to 2.5
TCL: Running for 5000 steps
ETITLE: TS BOND ANGLE DIHED IMPRP ELECT VDW BOUNDARY MISC KINETIC TOTAL TEMP POTENTIAL TOTAL3 TEMPAVG PRESSURE GPRESSURE VOLUME PRESSAVG GPRESSAVG
ENERGY: 10000 1534.7197 2334.8489 3159.6277 0.0000 -175552.5034 20122.5853 323.3122 0.0000 30807.9894 -117269.4202 299.5370 -148077.4096 -117225.2781 299.5370 21.6645 5.9422 501702.7346 21.6645 5.9422
ENERGY: 11000 1562.1960 2366.5359 3172.5547 0.0000 -175287.4676 20048.9508 513.1411 0.0000 30847.4667 -116776.6223 299.9208 -147624.0891 -116739.3382 299.4525 -12.3579 9.3931 501086.0607 -11.8056 -11.5317
ENERGY: 12000 1617.0459 2364.8271 3172.0098 0.0000 -175414.9542 20399.0170 507.3082 0.0000 30819.6965 -116535.0496 299.6508 -147354.7461 -116491.8534 300.7270 -78.3122 -58.7007 500552.1792 3.1910 3.1413
ENERGY: 13000 1609.2470 2383.8935 3186.5053 0.0000 -175353.7986 20012.3021 518.9773 0.0000 30709.9078 -116932.9657 298.5834 -147642.8735 -116886.0341 299.9819 37.3007 38.7576 500233.2749 -5.1627 -4.8996
ENERGY: 14000 1611.8579 2342.9237 3160.8777 0.0000 -175390.2734 20205.5428 506.8489 0.0000 30915.7127 -116646.5098 300.5843 -147562.2225 -116609.3887 300.6602 55.3986 13.8660 500945.1334 4.6995 4.3347
ENERGY: 15000 1663.7242 2336.5279 3165.7738 0.0000 -175613.1905 20154.8731 506.0111 0.0000 30792.5616 -116993.7187 299.3870 -147786.2804 -116954.8965 300.5376 -76.7607 -35.9112 501052.7921 -7.5741 -7.5359
TCL: Setting parameter constraintScaling to 1.25
TCL: Running for 5000 steps
ETITLE: TS BOND ANGLE DIHED IMPRP ELECT VDW BOUNDARY MISC KINETIC TOTAL TEMP POTENTIAL TOTAL3 TEMPAVG PRESSURE GPRESSURE VOLUME PRESSAVG GPRESSAVG
ENERGY: 15000 1663.7242 2336.5279 3165.7738 0.0000 -175613.1905 20154.8731 253.0055 0.0000 30790.4984 -117248.7876 299.3669 -148039.2859 -117205.4690 299.3669 -48.0951 -20.3454 501052.7921 -48.0951 -20.3454
ENERGY: 16000 1602.1828 2370.5606 3210.4503 0.0000 -175820.6159 20098.8927 401.8616 0.0000 30673.4848 -117463.1831 298.2292 -148136.6679 -117412.4121 299.0047 30.4794 20.5660 499015.3912 -9.3482 -9.3854
ENERGY: 17000 1638.8247 2360.5472 3185.3582 0.0000 -175836.6081 20178.2810 401.1241 0.0000 31032.1441 -117040.3288 301.7164 -148072.4730 -117003.8155 300.6718 102.4873 1.5922 499813.3306 -0.4444 -0.5063
ENERGY: 18000 1656.0976 2432.9348 3188.0208 0.0000 -175541.3374 20026.3489 382.5845 0.0000 30676.9880 -117178.3627 298.2633 -147855.3507 -117123.6940 300.4340 6.5897 28.8891 498399.1262 -1.3929 -1.2805
ENERGY: 19000 1567.5619 2357.5734 3199.7497 0.0000 -175835.5357 20093.9855 412.9527 0.0000 30850.6333 -117353.0792 299.9516 -148203.7125 -117315.7747 298.8748 -33.6084 54.3214 497855.6548 -9.2722 -8.4259
ENERGY: 20000 1619.8458 2358.1262 3175.6792 0.0000 -175610.7607 20106.4966 388.2450 0.0000 30980.1184 -116982.2495 301.2105 -147962.3679 -116939.3477 299.9444 14.9917 41.6785 498465.8846 -2.6812 -2.5315
TCL: Setting parameter constraintScaling to 0.625
TCL: Running for 5000 steps
ETITLE: TS BOND ANGLE DIHED IMPRP ELECT VDW BOUNDARY MISC KINETIC TOTAL TEMP POTENTIAL TOTAL3 TEMPAVG PRESSURE GPRESSURE VOLUME PRESSAVG GPRESSAVG
ENERGY: 20000 1619.8458 2358.1262 3175.6792 0.0000 -175610.7607 20106.4966 194.1225 0.0000 30978.0660 -117178.4244 301.1906 -148156.4904 -117135.2548 301.1906 -9.6441 14.5284 498465.8846 -9.6441 14.5284
ENERGY: 21000 1621.6401 2432.5279 3190.8490 0.0000 -175286.0272 19819.3927 320.8023 0.0000 30717.3714 -117183.4438 298.6559 -147900.8152 -117144.5355 301.0865 -72.6453 -0.3314 498920.2090 5.1049 5.3708
ENERGY: 22000 1637.7978 2354.3036 3223.6758 0.0000 -176024.5350 20182.5784 327.5995 0.0000 30778.7142 -117519.8656 299.2524 -148298.5798 -117468.3408 298.6918 -31.0234 -6.4559 498093.1267 -5.8286 -6.3626
ENERGY: 23000 1650.8271 2365.6612 3219.1150 0.0000 -175811.1342 20108.6061 314.5070 0.0000 30839.8886 -117312.5293 299.8471 -148152.4179 -117272.7556 300.3731 -142.3356 -10.8020 497236.6275 -9.7180 -9.4431
ENERGY: 24000 1627.5276 2327.9220 3202.1897 0.0000 -175928.8447 20072.5925 304.3301 0.0000 30935.0954 -117459.1873 300.7728 -148394.2827 -117422.2154 299.5909 -150.9489 -69.8999 496867.1487 2.1802 2.9107
ENERGY: 25000 1625.2710 2361.1831 3207.7771 0.0000 -175854.8524 20020.4691 306.5850 0.0000 30858.0727 -117475.4944 300.0239 -148333.5671 -117426.0928 299.4113 78.2988 33.3041 498134.5705 7.1534 7.4113
TCL: Setting parameter constraintScaling to 0.3125
TCL: Running for 5000 steps
ETITLE: TS BOND ANGLE DIHED IMPRP ELECT VDW BOUNDARY MISC KINETIC TOTAL TEMP POTENTIAL TOTAL3 TEMPAVG PRESSURE GPRESSURE VOLUME PRESSAVG GPRESSAVG
ENERGY: 25000 1625.2710 2361.1831 3207.7771 0.0000 -175854.8524 20020.4691 153.2925 0.0000 30856.0627 -117630.7969 300.0044 -148486.8596 -117588.3768 300.0044 7.7895 -32.5169 498134.5705 7.7895 -32.5169
ENERGY: 26000 1613.7532 2390.8612 3198.6548 0.0000 -175647.9367 20080.0483 238.0453 0.0000 30728.3474 -117398.2265 298.7626 -148126.5739 -117359.0208 299.1758 118.9896 56.9378 499021.6703 14.9836 15.2723
ENERGY: 27000 1635.5540 2421.7223 3207.3311 0.0000 -176175.9224 20249.7761 260.8227 0.0000 30924.2420 -117476.4743 300.6673 -148400.7163 -117429.6664 299.6148 -18.7346 -15.2736 497807.6221 -4.7353 -4.9378
ENERGY: 28000 1648.9819 2422.4849 3194.0394 0.0000 -176001.0479 20405.6173 240.2937 0.0000 30901.0565 -117188.5743 300.4418 -148089.6308 -117149.4698 300.4323 -73.2473 -6.0107 498496.3109 12.2071 12.8266
ENERGY: 29000 1634.3497 2404.9686 3244.4587 0.0000 -176274.6598 20194.9924 257.5525 0.0000 30892.8278 -117645.5102 300.3618 -148538.3380 -117601.3011 299.1313 -67.6915 -0.3981 498671.2982 3.9677 4.1854
ENERGY: 30000 1598.5065 2401.3697 3219.7675 0.0000 -175549.5420 20015.1920 254.3074 0.0000 30633.5265 -117426.8723 297.8407 -148060.3988 -117386.3985 300.0318 7.7374 -1.6819 498155.5100 -6.1826 -5.6432
TCL: Setting parameter constraintScaling to 0.15625
TCL: Running for 5000 steps
ETITLE: TS BOND ANGLE DIHED IMPRP ELECT VDW BOUNDARY MISC KINETIC TOTAL TEMP POTENTIAL TOTAL3 TEMPAVG PRESSURE GPRESSURE VOLUME PRESSAVG GPRESSAVG
ENERGY: 30000 1598.5065 2401.3697 3219.7675 0.0000 -175549.5420 20015.1920 127.1537 0.0000 30631.4597 -117556.0928 297.8206 -148187.5525 -117511.9727 297.8206 -4.2904 -14.0976 498155.5100 -4.2904 -14.0976
ENERGY: 31000 1650.6448 2443.1879 3258.3671 0.0000 -176190.1998 20215.8661 185.8916 0.0000 30876.6543 -117559.5881 300.2046 -148436.2424 -117506.5371 300.1993 -6.7861 -4.3826 497919.5771 -6.0719 -5.9037
ENERGY: 32000 1638.1125 2381.0828 3202.7333 0.0000 -175759.0790 20036.2094 179.8530 0.0000 30684.3055 -117636.7826 298.3344 -148321.0881 -117596.0252 298.9438 -54.0645 -11.9438 497612.2970 5.6282 5.9397
ENERGY: 33000 1638.4633 2374.5712 3199.7390 0.0000 -176184.2364 20168.9282 190.5006 0.0000 30991.5996 -117620.4344 301.3222 -148612.0341 -117573.4566 299.3854 -105.4124 13.5125 497471.3147 11.8172 11.1434
ENERGY: 34000 1615.7354 2364.7566 3161.1966 0.0000 -175963.9552 20223.0900 202.8669 0.0000 30909.1599 -117487.1499 300.5206 -148396.3098 -117437.9222 298.8685 109.7311 121.7532 496754.3968 -5.2475 -5.0540
ENERGY: 35000 1670.2440 2424.3846 3216.8242 0.0000 -176307.5278 20302.0290 212.2605 0.0000 30877.5299 -117604.2556 300.2131 -148481.7856 -117562.0964 299.1641 92.2929 -1.4918 496419.9786 -6.2284 -6.1190
TCL: Setting parameter constraintScaling to 0.078125
TCL: Running for 5000 steps
ETITLE: TS BOND ANGLE DIHED IMPRP ELECT VDW BOUNDARY MISC KINETIC TOTAL TEMP POTENTIAL TOTAL3 TEMPAVG PRESSURE GPRESSURE VOLUME PRESSAVG GPRESSAVG
ENERGY: 35000 1670.2440 2424.3846 3216.8242 0.0000 -176307.5278 20302.0290 106.1302 0.0000 30875.4648 -117712.4511 300.1930 -148587.9158 -117671.4906 300.1930 111.1718 18.8692 496419.9786 111.1718 18.8692
ENERGY: 36000 1531.2295 2427.7104 3201.0464 0.0000 -176152.7652 20193.7800 149.0953 0.0000 30648.2773 -118001.6263 297.9842 -148649.9036 -117956.1060 298.6164 103.1808 99.5725 498196.1412 23.5495 23.8225
ENERGY: 37000 1633.5425 2378.3064 3208.8886 0.0000 -176177.6146 20084.6460 147.6032 0.0000 30853.5118 -117871.1161 299.9796 -148724.6278 -117830.3201 298.4847 -57.8563 -61.8960 495559.8140 -8.1371 -7.7916
ENERGY: 38000 1639.9369 2395.2734 3213.6162 0.0000 -176331.2997 20137.3689 162.6910 0.0000 30846.6283 -117935.7850 299.9127 -148782.4133 -117884.3480 298.1228 -129.1563 -104.1343 495713.4258 1.2295 1.6644
ENERGY: 39000 1679.8055 2448.7427 3183.3006 0.0000 -176390.0410 20204.4824 158.8423 0.0000 30648.2409 -118066.6266 297.9838 -148714.8675 -118025.6707 299.4915 -28.6549 63.9622 497085.4034 3.4333 3.7037
ENERGY: 40000 1646.2379 2402.7584 3242.1537 0.0000 -176079.1763 20036.9403 160.2786 0.0000 30811.0635 -117779.7439 299.5669 -148590.8074 -117741.8006 299.4137 77.1382 56.1401 497444.3630 -0.5279 0.1749
TCL: Setting parameter constraintScaling to 0.0390625
TCL: Running for 5000 steps
ETITLE: TS BOND ANGLE DIHED IMPRP ELECT VDW BOUNDARY MISC KINETIC TOTAL TEMP POTENTIAL TOTAL3 TEMPAVG PRESSURE GPRESSURE VOLUME PRESSAVG GPRESSAVG
ENERGY: 40000 1646.2379 2402.7584 3242.1537 0.0000 -176079.1763 20036.9403 80.1393 0.0000 30809.0315 -117861.9152 299.5471 -148670.9467 -117815.2689 299.5471 23.9280 9.3964 497444.3630 23.9280 9.3964
ENERGY: 41000 1574.6274 2413.2546 3247.4003 0.0000 -176144.0084 20161.7646 108.7186 0.0000 30655.7352 -117982.5077 298.0567 -148638.2429 -117930.5793 299.4236 131.7628 77.9158 497013.8919 -10.5987 -10.2578
ENERGY: 42000 1687.2517 2372.3485 3191.1541 0.0000 -176105.2828 20182.4325 111.7140 0.0000 31027.3669 -117533.0152 301.6699 -148560.3821 -117482.2506 300.0413 6.3040 28.2250 496681.6082 -11.6018 -11.5888
ENERGY: 43000 1647.3087 2428.0514 3215.6767 0.0000 -176283.7377 20202.4415 114.6457 0.0000 31148.5252 -117527.0885 302.8479 -148675.6136 -117489.8893 300.5459 -53.0277 -39.2019 497631.9378 15.8730 16.3017
ENERGY: 44000 1625.3959 2449.3519 3211.7718 0.0000 -175444.9264 19845.8713 131.1576 0.0000 30813.8845 -117367.4935 299.5943 -148181.3780 -117323.6837 300.2510 -28.4158 23.9522 497281.2512 3.0411 3.2511
ENERGY: 45000 1629.8184 2383.9742 3209.6963 0.0000 -176163.6283 20207.0008 121.4243 0.0000 30765.7104 -117846.0040 299.1259 -148611.7144 -117802.2601 299.2502 -35.5516 -38.8294 496753.7499 -4.7915 -4.5661
TCL: Setting parameter constraintScaling to 0.01953125
TCL: Running for 5000 steps
ETITLE: TS BOND ANGLE DIHED IMPRP ELECT VDW BOUNDARY MISC KINETIC TOTAL TEMP POTENTIAL TOTAL3 TEMPAVG PRESSURE GPRESSURE VOLUME PRESSAVG GPRESSAVG
ENERGY: 45000 1629.8184 2383.9742 3209.6963 0.0000 -176163.6283 20207.0008 60.7122 0.0000 30763.6538 -117908.7728 299.1059 -148672.4266 -117866.2491 299.1059 -42.5562 -38.4080 496753.7499 -42.5562 -38.4080
ENERGY: 46000 1633.4002 2404.5112 3218.7824 0.0000 -175597.3315 19874.9866 73.1619 0.0000 30948.8490 -117443.6403 300.9065 -148392.4892 -117403.7853 299.9838 -19.0558 -59.1329 497050.6084 -3.9177 -4.1076
ENERGY: 47000 1601.4388 2466.3909 3220.7580 0.0000 -175615.4578 19999.7330 77.9924 0.0000 30826.1061 -117423.0385 299.7131 -148249.1446 -117383.2543 300.0546 -8.9155 103.3036 495808.9427 5.7901 5.2393
ENERGY: 48000 1611.8243 2427.1884 3219.1865 0.0000 -175931.1302 20260.8489 73.5573 0.0000 30799.4735 -117539.0512 299.4542 -148338.5247 -117492.5530 299.6690 11.8403 45.3184 497152.6763 7.2339 6.8622
ENERGY: 49000 1639.2857 2423.4067 3191.4356 0.0000 -175889.4519 19955.3527 77.3941 0.0000 30898.8612 -117703.7158 300.4205 -148602.5770 -117650.3965 300.2290 -13.0397 -29.3983 495902.4131 -11.8207 -11.7252
ENERGY: 50000 1662.4140 2420.4991 3207.9475 0.0000 -175935.7758 20178.8852 78.4695 0.0000 30841.8340 -117545.7266 299.8660 -148387.5606 -117494.7883 299.9434 71.9728 102.4341 496086.3076 12.2957 12.2171
TCL: Setting parameter constraintScaling to 0
TCL: Running for 5000 steps
ETITLE: TS BOND ANGLE DIHED IMPRP ELECT VDW BOUNDARY MISC KINETIC TOTAL TEMP POTENTIAL TOTAL3 TEMPAVG PRESSURE GPRESSURE VOLUME PRESSAVG GPRESSAVG
ENERGY: 50000 1662.4140 2420.4991 3207.9475 0.0000 -175935.7758 20178.8852 0.0000 0.0000 30839.8121 -117626.2180 299.8464 -148466.0301 -117585.0574 299.8464 73.7614 101.6427 496086.3076 73.7614 101.6427
ENERGY: 51000 1628.9914 2410.0878 3188.4421 0.0000 -176031.0411 20034.2812 0.0000 0.0000 30965.8533 -117803.3853 301.0718 -148769.2387 -117754.4648 300.7365 -95.8452 0.9559 495376.8249 -6.0680 -5.5863
ENERGY: 52000 1644.4401 2352.9023 3250.0720 0.0000 -175835.1112 19929.4267 0.0000 0.0000 30940.4660 -117717.8041 300.8250 -148658.2701 -117688.7093 299.7068 -147.5195 -92.5577 495961.6440 5.3573 5.1789
ENERGY: 53000 1624.5559 2381.7930 3236.5847 0.0000 -175849.9405 20047.3176 0.0000 0.0000 30735.1248 -117824.5644 298.8285 -148559.6893 -117777.5458 299.5706 64.2466 118.2513 496253.7022 -8.0547 -8.0403
ENERGY: 54000 1585.4441 2432.5420 3221.0216 0.0000 -175773.6977 19952.0705 0.0000 0.0000 31111.9507 -117470.6688 302.4923 -148582.6196 -117420.4144 300.1936 142.2471 65.4899 496134.3863 -8.3862 -8.0091
ENERGY: 55000 1667.4751 2456.4843 3230.5641 0.0000 -176066.8995 20134.6936 0.0000 0.0000 30788.9900 -117788.6924 299.3523 -148577.6824 -117749.7099 300.1739 -53.2195 23.2590 496715.1220 3.8134 3.8308
