Info: SIMULATION PARAMETERS:
Info: TIMESTEP               1
Info: NUMBER OF STEPS        0
Info: STEPS PER CYCLE        10
Info: PERIODIC CELL BASIS 1  72.449 0 0
Info: PERIODIC CELL BASIS 2  0 93.247 0
Info: PERIODIC CELL BASIS 3  0 0 79.185
Info: PERIODIC CELL CENTER   -0.248 -0.156 -0.047
Info: WRAPPING WATERS AROUND PERIODIC BOUNDARIES ON OUTPUT.
Info: WRAPPING ALL CLUSTERS AROUND PERIODIC BOUNDARIES ON OUTPUT.
Info: FIRST LDB TIMESTEP     50
Info: LAST LDB TIMESTEP     -1
Info: HOM BACKGROUND SCALING 1
Info: PME BACKGROUND SCALING 1
Info: MIN ATOMS PER PATCH    40
Info: VELOCITY FILE          ../replicas/rep94/equilibration/eq1.vel
Info: CENTER OF MASS MOVING INITIALLY? NO
Info: DIELECTRIC             1
Info: EXCLUDE                SCALED ONE-FOUR
Info: 1-4 ELECTROSTATICS SCALED BY 0.833333
Info: MODIFIED 1-4 VDW PARAMETERS WILL BE USED
Info: DCD FILENAME           ../replicas/rep94/equilibration/eq2.dcd
Info: DCD FREQUENCY          5000
Info: DCD FIRST STEP         5000
Info: DCD FILE WILL CONTAIN UNIT CELL DATA
Info: XST FILENAME           ../replicas/rep94/equilibration/eq2.xst
Info: XST FREQUENCY          5000
Info: NO VELOCITY DCD OUTPUT
Info: NO FORCE DCD OUTPUT
Info: OUTPUT FILENAME        ../replicas/rep94/equilibration/eq2
Info: RESTART FILENAME       ../replicas/rep94/equilibration/eq2.restart
Info: RESTART FREQUENCY      5000
Info: BINARY RESTART FILES WILL BE USED
Info: SWITCHING ACTIVE
Info: SWITCHING ON           10
Info: SWITCHING OFF          12
Info: PAIRLIST DISTANCE      13.5
Info: PAIRLIST SHRINK RATE   0.01
Info: PAIRLIST GROW RATE     0.01
Info: PAIRLIST TRIGGER       0.3
Info: PAIRLISTS PER CYCLE    2
Info: PAIRLISTS ENABLED
Info: MARGIN                 0.48
Info: HYDROGEN GROUP CUTOFF  2.5
Info: PATCH DIMENSION        16.48
Info: ENERGY OUTPUT STEPS    500
Info: CROSSTERM ENERGY INCLUDED IN DIHEDRAL
Info: TIMING OUTPUT STEPS    5000
Info: PRESSURE OUTPUT STEPS  500
Info: HARMONIC CONSTRAINTS ACTIVE
Info: HARMONIC CONS EXP      2
Info: HARMONIC CONS SCALING  10
Info: LANGEVIN DYNAMICS ACTIVE
Info: LANGEVIN TEMPERATURE   300
Info: LANGEVIN USING BBK INTEGRATOR
Info: LANGEVIN DAMPING COEFFICIENT IS 5 INVERSE PS
Info: LANGEVIN DYNAMICS NOT APPLIED TO HYDROGENS
Info: BERENDSEN PRESSURE COUPLING ACTIVE
Info:     TARGET PRESSURE IS 1 BAR
Info:     COMPRESSIBILITY ESTIMATE IS 4.57e-05 BAR^(-1)
Info:     RELAXATION TIME IS 100 FS
Info:     APPLIED EVERY 2 STEPS
Info:     PRESSURE CONTROL IS GROUP-BASED
Info:       CELL FLUCTUATION IS ISOTROPIC
Info: PARTICLE MESH EWALD (PME) ACTIVE
Info: PME TOLERANCE               1e-06
Info: PME EWALD COEFFICIENT       0.257952
Info: PME INTERPOLATION ORDER     4
Info: PME GRID DIMENSIONS         80 96 80
Info: PME MAXIMUM GRID SPACING    1
Info: FULL ELECTROSTATIC EVALUATION FREQUENCY      2
Info: USING VERLET I (r-RESPA) MTS SCHEME.
Info: C1 SPLITTING OF LONG RANGE ELECTROSTATICS
Info: PLACING ATOMS IN PATCHES BY HYDROGEN GROUPS
Info: RIGID BONDS TO HYDROGEN : WATER
Info:         ERROR TOLERANCE : 1e-05
Info:          MAX ITERATIONS : 100
Info: RIGID WATER USING SETTLE ALGORITHM
Info: RANDOM NUMBER SEED     1503706123
Info: USE HYDROGEN BONDS?    NO
Info: Using AMBER format force field!
Info: AMBER PARM FILE        ../build/complex.top
Info: COORDINATE PDB         ../replicas/rep94/equilibration/eq1.coor
Info: Exclusions in PARM file will be ignored!
Info: SCNB (VDW SCALING)     2
Info: USING ARITHMETIC MEAN TO COMBINE L-J SIGMA PARAMETERS
Info: SUMMARY OF PARAMETERS:
Info: 71 BONDS
Info: 145 ANGLES
Info: 76 DIHEDRAL
Info: 0 IMPROPER
Info: 0 CROSSTERM
Info: 0 VDW
Info: 190 VDW_PAIRS
Info: 0 NBTHOLE_PAIRS
Info: STRUCTURE SUMMARY:
Info: 49394 ATOMS
Info: 49448 BONDS
Info: 8698 ANGLES
Info: 18780 DIHEDRALS
Info: 0 IMPROPERS
Info: 0 CROSSTERMS
Info: 0 EXCLUSIONS
Info: 2336 CONSTRAINTS
Info: 44667 RIGID BONDS
Info: 103515 DEGREES OF FREEDOM
Info: 17225 HYDROGEN GROUPS
Info: 4 ATOMS IN LARGEST HYDROGEN GROUP
Info: 17225 MIGRATION GROUPS
Info: 4 ATOMS IN LARGEST MIGRATION GROUP
Info: TOTAL MASS = 301478 amu
Info: TOTAL CHARGE = 1.00115e-05 e
Info: MASS DENSITY = 0.935846 g/cm^3
Info: ATOM DENSITY = 0.0923345 atoms/A^3
Info: ADDED 70656 IMPLICIT EXCLUSIONS
Info: NONBONDED TABLE R-SQUARED SPACING: 0.0625
Info: NONBONDED TABLE SIZE: 769 POINTS
Info: REMOVING COM VELOCITY -0.0108291 0.0239399 -0.0163326
TCL: Running for 5000 steps
ETITLE: TS BOND ANGLE DIHED IMPRP ELECT VDW BOUNDARY MISC KINETIC TOTAL TEMP POTENTIAL TOTAL3 TEMPAVG PRESSURE GPRESSURE VOLUME PRESSAVG GPRESSAVG
ENERGY: 0 378.1495 1207.8479 2917.5845 0.0000 -212778.5611 29567.5065 0.0000 0.0000 10064.3710 -168643.1016 97.8529 -178707.4727 -168633.6685 97.8529 -2319.4209 -2417.3999 534946.2959 -2319.4209 -2417.3999
ENERGY: 1000 1248.2114 2032.0171 3083.4700 0.0000 -193395.6607 26456.7706 761.4301 0.0000 24052.0700 -135761.6915 233.8512 -159813.7615 -135748.1377 219.4208 -37.1913 -20.1793 521979.5699 -19.7353 -20.1432
ENERGY: 2000 1439.8498 2132.0416 3150.7036 0.0000 -184395.6007 23359.2853 780.4757 0.0000 28056.3898 -125476.8548 272.7840 -153533.2446 -125424.0978 264.3084 2.1446 0.5075 515073.5037 -27.6913 -27.8123
ENERGY: 3000 1477.5910 2279.1718 3134.4046 0.0000 -179244.0955 21508.6272 770.4171 0.0000 29443.3779 -120630.5059 286.2693 -150073.8838 -120586.5838 284.1640 79.4868 14.4785 508731.6656 -21.8860 -21.7690
ENERGY: 4000 1565.5272 2217.0268 3118.1136 0.0000 -176629.6980 20502.0179 808.8428 0.0000 30255.9554 -118162.2142 294.1697 -148418.1696 -118106.7004 292.8985 43.1923 3.1102 506489.6131 -8.2295 -7.9618
ENERGY: 5000 1593.9095 2145.8505 3128.3955 0.0000 -176422.2436 20619.3139 822.5728 0.0000 30656.2731 -117455.9282 298.0619 -148112.2013 -117409.8040 295.5789 43.2778 25.8907 503478.0351 2.5205 2.5470
TCL: Setting parameter constraintScaling to 5.0
TCL: Running for 5000 steps
ETITLE: TS BOND ANGLE DIHED IMPRP ELECT VDW BOUNDARY MISC KINETIC TOTAL TEMP POTENTIAL TOTAL3 TEMPAVG PRESSURE GPRESSURE VOLUME PRESSAVG GPRESSAVG
ENERGY: 5000 1593.9095 2145.8505 3128.3955 0.0000 -176422.2436 20619.3139 411.2864 0.0000 30654.2087 -117869.2789 298.0418 -148523.4877 -117825.9434 298.0418 -35.7081 -51.2638 503478.0351 -35.7081 -51.2638
ENERGY: 6000 1563.2982 2293.3159 3154.7551 0.0000 -175918.6553 20288.0493 641.9188 0.0000 30789.4903 -117187.8278 299.3571 -147977.3181 -117155.8490 297.1934 -95.3470 -76.9017 503440.0431 -0.2110 0.2713
ENERGY: 7000 1536.1887 2278.0782 3173.0750 0.0000 -175806.4294 20274.7172 657.5572 0.0000 30712.7489 -117174.0642 298.6110 -147886.8131 -117128.6305 298.3329 -41.9733 7.3668 501374.2691 -17.7023 -17.6430
ENERGY: 8000 1616.9635 2307.1902 3124.3908 0.0000 -175695.3805 20173.0366 643.9955 0.0000 30866.2967 -116963.5073 300.1039 -147829.8040 -116917.4523 298.6554 -135.2987 -29.2811 501056.4714 3.2455 3.0604
ENERGY: 9000 1569.1289 2328.4567 3128.4955 0.0000 -175343.5099 20204.2535 665.0148 0.0000 30440.7027 -117007.4580 295.9660 -147448.1606 -116959.7354 299.5897 -47.1800 15.0127 502550.6053 3.6505 3.4883
ENERGY: 10000 1644.0003 2279.6492 3096.4025 0.0000 -175938.1512 20334.8274 623.3890 0.0000 30455.6184 -117504.2644 296.1110 -147959.8828 -117472.7050 299.2262 -26.2513 -9.5427 502197.4801 -10.4209 -10.1817
TCL: Setting parameter constraintScaling to 2.5
TCL: Running for 5000 steps
ETITLE: TS BOND ANGLE DIHED IMPRP ELECT VDW BOUNDARY MISC KINETIC TOTAL TEMP POTENTIAL TOTAL3 TEMPAVG PRESSURE GPRESSURE VOLUME PRESSAVG GPRESSAVG
ENERGY: 10000 1644.0003 2279.6492 3096.4025 0.0000 -175938.1512 20334.8274 311.6945 0.0000 30453.5594 -117818.0179 296.0910 -148271.5773 -117774.4842 296.0910 -110.4826 -98.0853 502197.4801 -110.4826 -98.0853
ENERGY: 11000 1642.7127 2350.9114 3167.3772 0.0000 -175717.9597 20225.6210 492.6965 0.0000 30841.8178 -116996.8230 299.8659 -147838.6408 -116949.3579 299.3650 -48.9654 31.8113 502901.2002 -4.0178 -3.8088
ENERGY: 12000 1673.5968 2430.5803 3174.8949 0.0000 -175979.4843 20119.3846 496.8831 0.0000 30875.5696 -117208.5751 300.1940 -148084.1447 -117159.3579 299.9910 -78.4622 -55.9804 501049.6296 -5.3208 -5.3351
ENERGY: 13000 1569.3951 2351.0185 3131.6636 0.0000 -175798.6789 20084.4131 498.2791 0.0000 30829.0934 -117334.8162 299.7422 -148163.9096 -117287.9697 298.6284 48.0097 -4.9314 500731.8055 -6.3598 -6.0173
ENERGY: 14000 1556.8658 2334.6775 3170.0297 0.0000 -175829.3453 20255.1860 510.6399 0.0000 30671.5251 -117330.4211 298.2102 -148001.9463 -117286.1609 299.3817 70.5342 64.7130 500168.4457 -9.2150 -9.3983
ENERGY: 15000 1614.4285 2351.1259 3158.6287 0.0000 -175929.3153 20156.0918 492.7324 0.0000 30940.0489 -117216.2591 300.8210 -148156.3080 -117169.8875 299.5404 -10.8808 65.8132 498977.2683 0.6233 0.9857
TCL: Setting parameter constraintScaling to 1.25
TCL: Running for 5000 steps
ETITLE: TS BOND ANGLE DIHED IMPRP ELECT VDW BOUNDARY MISC KINETIC TOTAL TEMP POTENTIAL TOTAL3 TEMPAVG PRESSURE GPRESSURE VOLUME PRESSAVG GPRESSAVG
ENERGY: 15000 1614.4285 2351.1259 3158.6287 0.0000 -175929.3153 20156.0918 246.3662 0.0000 30938.0176 -117464.6566 300.8012 -148402.6742 -117424.7405 300.8012 -46.7001 24.2528 498977.2683 -46.7001 24.2528
ENERGY: 16000 1585.3355 2340.2742 3190.5259 0.0000 -175235.0573 19798.1547 376.0068 0.0000 30830.9611 -117113.7990 299.7603 -147944.7601 -117057.3243 299.8157 -19.6532 -66.2873 498907.8637 -3.8341 -3.6114
ENERGY: 17000 1657.1791 2348.4797 3178.5173 0.0000 -175889.6435 20111.7156 408.0745 0.0000 30880.7723 -117304.9050 300.2446 -148185.6773 -117262.5300 299.5844 -32.0352 6.1029 499856.9792 7.5408 7.5277
ENERGY: 18000 1602.6432 2383.8263 3175.8384 0.0000 -176254.5781 20366.5922 381.4800 0.0000 30735.3647 -117608.8333 298.8309 -148344.1979 -117562.7669 298.6724 -159.2034 -40.4934 499373.0792 -0.4925 -0.4393
ENERGY: 19000 1649.4543 2367.2906 3198.4646 0.0000 -175660.3291 19961.5086 412.8075 0.0000 30725.1429 -117345.6606 298.7315 -148070.8035 -117298.0327 300.2091 -7.0177 55.5776 500163.2641 10.5572 10.9642
ENERGY: 20000 1578.4574 2342.0091 3185.5108 0.0000 -175738.2289 20222.4268 402.4939 0.0000 30789.6855 -117217.6455 299.3590 -148007.3309 -117167.1576 299.8661 100.9889 112.3384 500361.0367 -0.4639 -0.1696
TCL: Setting parameter constraintScaling to 0.625
TCL: Running for 5000 steps
ETITLE: TS BOND ANGLE DIHED IMPRP ELECT VDW BOUNDARY MISC KINETIC TOTAL TEMP POTENTIAL TOTAL3 TEMPAVG PRESSURE GPRESSURE VOLUME PRESSAVG GPRESSAVG
ENERGY: 20000 1578.4574 2342.0091 3185.5108 0.0000 -175738.2289 20222.4268 201.2470 0.0000 30787.6555 -117420.9224 299.3393 -148208.5779 -117378.8833 299.3393 106.5454 113.0071 500361.0367 106.5454 113.0071
ENERGY: 21000 1606.5508 2367.8355 3198.8754 0.0000 -175802.4966 19981.8614 323.6197 0.0000 31031.5899 -117292.1639 301.7110 -148323.7538 -117231.5431 299.3198 -84.8624 -124.7009 498719.3815 -6.6843 -6.3376
ENERGY: 22000 1582.6746 2424.9956 3186.9576 0.0000 -175601.9766 20015.1711 340.0008 0.0000 30633.5226 -117418.6544 297.8407 -148052.1769 -117371.0571 299.6328 -23.6958 41.1628 497824.0281 -6.2377 -6.6645
ENERGY: 23000 1569.2506 2398.0548 3181.6384 0.0000 -175591.6784 19923.0034 315.3487 0.0000 30861.7338 -117342.6487 300.0595 -148204.3825 -117299.5563 299.0660 -103.3044 -15.3803 496690.0853 -0.4023 -0.6133
ENERGY: 24000 1581.9088 2416.4293 3169.3289 0.0000 -175833.7820 19914.0499 314.3126 0.0000 30645.8413 -117791.9111 297.9605 -148437.7524 -117750.9685 298.1153 43.5924 61.8023 496968.8650 -9.5246 -9.3468
ENERGY: 25000 1620.8831 2318.9526 3186.0152 0.0000 -175826.1356 20056.2742 313.1639 0.0000 30820.4556 -117510.3910 299.6582 -148330.8466 -117465.8855 299.3875 10.2648 -7.2088 498782.2290 7.1272 7.6540
TCL: Setting parameter constraintScaling to 0.3125
TCL: Running for 5000 steps
ETITLE: TS BOND ANGLE DIHED IMPRP ELECT VDW BOUNDARY MISC KINETIC TOTAL TEMP POTENTIAL TOTAL3 TEMPAVG PRESSURE GPRESSURE VOLUME PRESSAVG GPRESSAVG
ENERGY: 25000 1620.8831 2318.9526 3186.0152 0.0000 -175826.1356 20056.2742 156.5820 0.0000 30818.3778 -117669.0507 299.6380 -148487.4286 -117622.4036 299.6380 -55.0390 -70.3070 498782.2290 -55.0390 -70.3070
ENERGY: 26000 1624.3980 2418.8068 3210.0666 0.0000 -175693.6589 20115.8575 238.6678 0.0000 30998.9553 -117086.9068 301.3937 -148085.8621 -117030.2933 300.3197 -103.3131 27.5018 497299.8711 -4.3646 -3.7559
ENERGY: 27000 1651.1490 2423.1513 3180.4273 0.0000 -176203.4253 20227.8758 250.3355 0.0000 30764.0798 -117706.4065 299.1101 -148470.4864 -117663.3541 299.8677 -25.0208 -39.0145 495536.6520 2.6950 2.6657
ENERGY: 28000 1631.8395 2396.8920 3184.1814 0.0000 -175965.7782 20193.1898 251.4079 0.0000 30888.2865 -117419.9811 300.3177 -148308.2676 -117376.0642 299.7201 -13.0310 -41.6982 497466.8812 5.0495 4.9257
ENERGY: 29000 1594.7019 2418.1505 3199.8871 0.0000 -176236.5650 20230.6837 282.5644 0.0000 30948.4484 -117562.1290 300.9026 -148510.5774 -117508.0981 299.7034 142.2331 96.5565 497832.8225 8.7582 7.9417
ENERGY: 30000 1576.9999 2408.5356 3189.4264 0.0000 -175799.7636 20011.7520 267.3065 0.0000 30677.3516 -117668.3916 298.2668 -148345.7432 -117610.2764 297.8626 -63.1994 -43.5165 497263.2303 -2.4910 -2.9312
TCL: Setting parameter constraintScaling to 0.15625
TCL: Running for 5000 steps
ETITLE: TS BOND ANGLE DIHED IMPRP ELECT VDW BOUNDARY MISC KINETIC TOTAL TEMP POTENTIAL TOTAL3 TEMPAVG PRESSURE GPRESSURE VOLUME PRESSAVG GPRESSAVG
ENERGY: 30000 1576.9999 2408.5356 3189.4264 0.0000 -175799.7636 20011.7520 133.6532 0.0000 30675.3173 -117804.0791 298.2471 -148479.3964 -117759.6337 298.2471 -82.8259 -66.5350 497263.2303 -82.8259 -66.5350
ENERGY: 31000 1660.6792 2444.2677 3224.9598 0.0000 -175864.5249 20043.5020 201.9680 0.0000 30968.1257 -117321.0226 301.0939 -148289.1483 -117276.5366 299.3185 40.7700 18.0088 497003.8918 -9.3873 -9.9864
ENERGY: 32000 1655.4141 2439.5879 3190.3082 0.0000 -175698.1961 20045.1532 194.4703 0.0000 30888.1226 -117285.1399 300.3161 -148173.2625 -117242.5213 300.1403 -56.2101 12.4764 497389.8044 -8.3598 -8.1608
ENERGY: 33000 1644.9899 2390.8015 3203.2996 0.0000 -175585.1149 19949.2001 186.8633 0.0000 30901.8550 -117308.1056 300.4496 -148209.9605 -117270.3416 300.1879 29.9583 56.1647 496829.4884 -7.9206 -8.2084
ENERGY: 34000 1619.9420 2402.3884 3212.8379 0.0000 -175275.5426 19933.4587 195.2047 0.0000 30786.0740 -117125.6370 299.3239 -147911.7110 -117091.9269 299.9128 150.7987 153.0580 497686.2137 9.0241 9.4718
ENERGY: 35000 1597.4588 2428.5143 3215.2848 0.0000 -175905.6718 19988.5543 200.3230 0.0000 30994.8883 -117480.6483 301.3541 -148475.5366 -117442.8672 300.4697 74.3344 69.0317 496975.8538 -4.3023 -3.8661
TCL: Setting parameter constraintScaling to 0.078125
TCL: Running for 5000 steps
ETITLE: TS BOND ANGLE DIHED IMPRP ELECT VDW BOUNDARY MISC KINETIC TOTAL TEMP POTENTIAL TOTAL3 TEMPAVG PRESSURE GPRESSURE VOLUME PRESSAVG GPRESSAVG
ENERGY: 35000 1597.4588 2428.5143 3215.2848 0.0000 -175905.6718 19988.5543 100.1615 0.0000 30992.8334 -117582.8646 301.3342 -148575.6981 -117540.1983 301.3342 66.4018 50.9138 496975.8538 66.4018 50.9138
ENERGY: 36000 1606.2051 2383.1728 3233.1120 0.0000 -175695.3434 20069.7166 143.6583 0.0000 30553.6730 -117705.8055 297.0643 -148259.4786 -117660.3633 299.3276 -69.7858 -103.5027 497969.6017 -1.3998 -1.0044
ENERGY: 37000 1582.4615 2403.3220 3255.2162 0.0000 -175914.0619 20112.4687 150.1960 0.0000 30706.5682 -117703.8293 298.5509 -148410.3976 -117665.8584 298.8834 -89.6766 -28.3424 497522.5149 2.6009 2.3455
ENERGY: 38000 1627.0447 2381.2404 3201.7704 0.0000 -175914.1966 20080.7795 163.0168 0.0000 30825.6254 -117634.7195 299.7085 -148460.3448 -117585.5383 299.2710 -2.5495 52.9421 496422.2487 -1.7740 -1.4830
ENERGY: 39000 1625.6262 2402.5416 3200.0043 0.0000 -176557.0617 20358.0176 166.3716 0.0000 30896.7706 -117907.7297 300.4002 -148804.5003 -117854.7202 299.0603 108.9059 -25.1751 496395.5889 -5.0662 -4.9402
ENERGY: 40000 1630.8949 2427.1886 3237.1411 0.0000 -176388.8312 20316.6133 180.2308 0.0000 30666.8372 -117929.9252 298.1646 -148596.7624 -117891.6648 299.3955 -61.8160 39.2066 496973.5442 2.7364 2.5285
TCL: Setting parameter constraintScaling to 0.0390625
TCL: Running for 5000 steps
ETITLE: TS BOND ANGLE DIHED IMPRP ELECT VDW BOUNDARY MISC KINETIC TOTAL TEMP POTENTIAL TOTAL3 TEMPAVG PRESSURE GPRESSURE VOLUME PRESSAVG GPRESSAVG
ENERGY: 40000 1630.8949 2427.1886 3237.1411 0.0000 -176388.8312 20316.6133 90.1154 0.0000 30664.7905 -118022.0873 298.1447 -148686.8778 -117981.2909 298.1447 -60.7054 40.5019 496973.5442 -60.7054 40.5019
ENERGY: 41000 1702.0217 2396.2233 3235.6981 0.0000 -176309.8439 20404.8873 121.2337 0.0000 30832.1238 -117617.6560 299.7716 -148449.7798 -117574.0401 298.6509 1.4708 18.4339 497473.2198 9.1031 9.3161
ENERGY: 42000 1659.5098 2457.5960 3172.0657 0.0000 -175913.9745 20099.7676 117.2816 0.0000 30843.2726 -117564.4812 299.8800 -148407.7537 -117518.3917 300.1268 -63.4213 -13.9383 497532.1202 0.0170 -0.1444
ENERGY: 43000 1657.5897 2423.1095 3203.1262 0.0000 -175607.9143 19937.0218 120.4048 0.0000 30701.8438 -117564.8186 298.5050 -148266.6624 -117520.5411 300.5467 9.3847 -5.0035 496307.2795 -4.7541 -4.3729
ENERGY: 44000 1622.8254 2399.3611 3229.6914 0.0000 -175839.9177 20013.4397 121.3466 0.0000 30782.4272 -117670.8262 299.2885 -148453.2534 -117631.9720 300.0247 20.9983 15.6805 497011.3320 5.3181 5.3382
ENERGY: 45000 1657.1205 2410.5407 3218.4356 0.0000 -175948.3814 20065.0126 137.9037 0.0000 30853.8528 -117605.5156 299.9829 -148459.3685 -117549.5868 300.1889 21.8770 9.9308 495948.5947 4.6099 3.9330
TCL: Setting parameter constraintScaling to 0.01953125
TCL: Running for 5000 steps
ETITLE: TS BOND ANGLE DIHED IMPRP ELECT VDW BOUNDARY MISC KINETIC TOTAL TEMP POTENTIAL TOTAL3 TEMPAVG PRESSURE GPRESSURE VOLUME PRESSAVG GPRESSAVG
ENERGY: 45000 1657.1205 2410.5407 3218.4356 0.0000 -175948.3814 20065.0126 68.9518 0.0000 30851.8013 -117676.5190 299.9630 -148528.3203 -117633.7805 299.9630 9.1922 0.4563 495948.5947 9.1922 0.4563
ENERGY: 46000 1629.9807 2491.6091 3242.6485 0.0000 -175772.4760 20015.9789 79.3703 0.0000 30927.7915 -117385.0970 300.7018 -148312.8884 -117334.3496 299.6773 90.5504 136.6400 496226.3135 1.7333 1.8637
ENERGY: 47000 1709.8999 2421.1156 3163.9054 0.0000 -175822.5391 20189.3543 83.6939 0.0000 30887.5037 -117367.0663 300.3101 -148254.5700 -117327.4630 300.3917 -108.4879 -57.2391 499501.9501 23.2791 24.3216
ENERGY: 48000 1680.0100 2472.7293 3202.0497 0.0000 -175878.1853 19973.7375 88.8129 0.0000 31009.8028 -117451.0432 301.4992 -148460.8460 -117408.4357 300.0460 -64.9601 -30.1621 496061.3485 -14.2779 -13.7736
ENERGY: 49000 1625.1435 2465.3801 3215.8050 0.0000 -176095.1856 20214.6583 98.9767 0.0000 30732.6010 -117742.6210 298.8040 -148475.2220 -117692.4269 299.6583 -16.2087 -2.3223 498267.7147 16.2507 16.1065
ENERGY: 50000 1663.7911 2418.0132 3232.9690 0.0000 -176132.9187 20124.5071 95.9695 0.0000 30848.9966 -117748.6721 299.9357 -148597.6687 -117711.7612 300.2768 -109.3696 -49.5952 497288.0184 2.0671 1.9187
TCL: Setting parameter constraintScaling to 0
TCL: Running for 5000 steps
ETITLE: TS BOND ANGLE DIHED IMPRP ELECT VDW BOUNDARY MISC KINETIC TOTAL TEMP POTENTIAL TOTAL3 TEMPAVG PRESSURE GPRESSURE VOLUME PRESSAVG GPRESSAVG
ENERGY: 50000 1663.7911 2418.0132 3232.9690 0.0000 -176132.9187 20124.5071 0.0000 0.0000 30846.9743 -117846.6639 299.9160 -148693.6382 -117804.6834 299.9160 -122.3807 -72.7246 497288.0184 -122.3807 -72.7246
ENERGY: 51000 1719.9686 2456.4661 3254.3564 0.0000 -176269.1072 20131.1361 0.0000 0.0000 30791.8381 -117915.3419 299.3800 -148707.1800 -117880.3699 298.8691 -221.5257 -140.5525 495807.0768 -11.8874 -12.1810
ENERGY: 52000 1637.7466 2429.9708 3190.8419 0.0000 -176111.9271 20082.0617 0.0000 0.0000 30960.5813 -117810.7248 301.0206 -148771.3061 -117766.6293 299.2686 -48.9110 6.3291 496676.1985 8.2618 8.2498
ENERGY: 53000 1636.6026 2446.4462 3218.7970 0.0000 -176378.0144 20153.0257 0.0000 0.0000 30727.2650 -118195.8779 298.7521 -148923.1429 -118147.8364 298.0259 -42.3444 -0.4947 495369.0545 -9.4515 -9.5760
ENERGY: 54000 1611.8855 2423.5164 3179.4177 0.0000 -175622.5386 20052.2657 0.0000 0.0000 30926.1613 -117429.2921 300.6859 -148355.4533 -117394.9170 299.6781 74.2520 40.8020 496099.2159 0.1398 -0.2649
ENERGY: 55000 1644.3910 2436.6186 3214.4504 0.0000 -175999.0014 20163.4129 0.0000 0.0000 30912.8865 -117627.2420 300.5569 -148540.1285 -117585.3983 300.0820 7.5597 22.0393 497070.3131 6.7262 6.7551
