Info: SIMULATION PARAMETERS:
Info: TIMESTEP               1
Info: NUMBER OF STEPS        0
Info: STEPS PER CYCLE        10
Info: PERIODIC CELL BASIS 1  72.449 0 0
Info: PERIODIC CELL BASIS 2  0 93.247 0
Info: PERIODIC CELL BASIS 3  0 0 79.185
Info: PERIODIC CELL CENTER   -0.248 -0.156 -0.047
Info: WRAPPING WATERS AROUND PERIODIC BOUNDARIES ON OUTPUT.
Info: WRAPPING ALL CLUSTERS AROUND PERIODIC BOUNDARIES ON OUTPUT.
Info: FIRST LDB TIMESTEP     50
Info: LAST LDB TIMESTEP     -1
Info: HOM BACKGROUND SCALING 1
Info: PME BACKGROUND SCALING 1
Info: MIN ATOMS PER PATCH    40
Info: VELOCITY FILE          ../replicas/rep82/equilibration/eq1.vel
Info: CENTER OF MASS MOVING INITIALLY? NO
Info: DIELECTRIC             1
Info: EXCLUDE                SCALED ONE-FOUR
Info: 1-4 ELECTROSTATICS SCALED BY 0.833333
Info: MODIFIED 1-4 VDW PARAMETERS WILL BE USED
Info: DCD FILENAME           ../replicas/rep82/equilibration/eq2.dcd
Info: DCD FREQUENCY          5000
Info: DCD FIRST STEP         5000
Info: DCD FILE WILL CONTAIN UNIT CELL DATA
Info: XST FILENAME           ../replicas/rep82/equilibration/eq2.xst
Info: XST FREQUENCY          5000
Info: NO VELOCITY DCD OUTPUT
Info: NO FORCE DCD OUTPUT
Info: OUTPUT FILENAME        ../replicas/rep82/equilibration/eq2
Info: RESTART FILENAME       ../replicas/rep82/equilibration/eq2.restart
Info: RESTART FREQUENCY      5000
Info: BINARY RESTART FILES WILL BE USED
Info: SWITCHING ACTIVE
Info: SWITCHING ON           10
Info: SWITCHING OFF          12
Info: PAIRLIST DISTANCE      13.5
Info: PAIRLIST SHRINK RATE   0.01
Info: PAIRLIST GROW RATE     0.01
Info: PAIRLIST TRIGGER       0.3
Info: PAIRLISTS PER CYCLE    2
Info: PAIRLISTS ENABLED
Info: MARGIN                 0.48
Info: HYDROGEN GROUP CUTOFF  2.5
Info: PATCH DIMENSION        16.48
Info: ENERGY OUTPUT STEPS    500
Info: CROSSTERM ENERGY INCLUDED IN DIHEDRAL
Info: TIMING OUTPUT STEPS    5000
Info: PRESSURE OUTPUT STEPS  500
Info: HARMONIC CONSTRAINTS ACTIVE
Info: HARMONIC CONS EXP      2
Info: HARMONIC CONS SCALING  10
Info: LANGEVIN DYNAMICS ACTIVE
Info: LANGEVIN TEMPERATURE   300
Info: LANGEVIN USING BBK INTEGRATOR
Info: LANGEVIN DAMPING COEFFICIENT IS 5 INVERSE PS
Info: LANGEVIN DYNAMICS NOT APPLIED TO HYDROGENS
Info: BERENDSEN PRESSURE COUPLING ACTIVE
Info:     TARGET PRESSURE IS 1 BAR
Info:     COMPRESSIBILITY ESTIMATE IS 4.57e-05 BAR^(-1)
Info:     RELAXATION TIME IS 100 FS
Info:     APPLIED EVERY 2 STEPS
Info:     PRESSURE CONTROL IS GROUP-BASED
Info:       CELL FLUCTUATION IS ISOTROPIC
Info: PARTICLE MESH EWALD (PME) ACTIVE
Info: PME TOLERANCE               1e-06
Info: PME EWALD COEFFICIENT       0.257952
Info: PME INTERPOLATION ORDER     4
Info: PME GRID DIMENSIONS         80 96 80
Info: PME MAXIMUM GRID SPACING    1
Info: FULL ELECTROSTATIC EVALUATION FREQUENCY      2
Info: USING VERLET I (r-RESPA) MTS SCHEME.
Info: C1 SPLITTING OF LONG RANGE ELECTROSTATICS
Info: PLACING ATOMS IN PATCHES BY HYDROGEN GROUPS
Info: RIGID BONDS TO HYDROGEN : WATER
Info:         ERROR TOLERANCE : 1e-05
Info:          MAX ITERATIONS : 100
Info: RIGID WATER USING SETTLE ALGORITHM
Info: RANDOM NUMBER SEED     1503715044
Info: USE HYDROGEN BONDS?    NO
Info: Using AMBER format force field!
Info: AMBER PARM FILE        ../build/complex.top
Info: COORDINATE PDB         ../replicas/rep82/equilibration/eq1.coor
Info: Exclusions in PARM file will be ignored!
Info: SCNB (VDW SCALING)     2
Info: USING ARITHMETIC MEAN TO COMBINE L-J SIGMA PARAMETERS
Info: SUMMARY OF PARAMETERS:
Info: 71 BONDS
Info: 145 ANGLES
Info: 76 DIHEDRAL
Info: 0 IMPROPER
Info: 0 CROSSTERM
Info: 0 VDW
Info: 190 VDW_PAIRS
Info: 0 NBTHOLE_PAIRS
Info: STRUCTURE SUMMARY:
Info: 49394 ATOMS
Info: 49448 BONDS
Info: 8698 ANGLES
Info: 18780 DIHEDRALS
Info: 0 IMPROPERS
Info: 0 CROSSTERMS
Info: 0 EXCLUSIONS
Info: 2336 CONSTRAINTS
Info: 44667 RIGID BONDS
Info: 103515 DEGREES OF FREEDOM
Info: 17225 HYDROGEN GROUPS
Info: 4 ATOMS IN LARGEST HYDROGEN GROUP
Info: 17225 MIGRATION GROUPS
Info: 4 ATOMS IN LARGEST MIGRATION GROUP
Info: TOTAL MASS = 301478 amu
Info: TOTAL CHARGE = 1.00115e-05 e
Info: MASS DENSITY = 0.935846 g/cm^3
Info: ATOM DENSITY = 0.0923345 atoms/A^3
Info: ADDED 70656 IMPLICIT EXCLUSIONS
Info: NONBONDED TABLE R-SQUARED SPACING: 0.0625
Info: NONBONDED TABLE SIZE: 769 POINTS
Info: REMOVING COM VELOCITY -0.0227136 -0.0102224 0.0106377
TCL: Running for 5000 steps
ETITLE: TS BOND ANGLE DIHED IMPRP ELECT VDW BOUNDARY MISC KINETIC TOTAL TEMP POTENTIAL TOTAL3 TEMPAVG PRESSURE GPRESSURE VOLUME PRESSAVG GPRESSAVG
ENERGY: 0 398.4379 1218.9341 2911.7803 0.0000 -212840.9274 29673.9663 0.0000 0.0000 10123.6526 -168514.1562 98.4293 -178637.8088 -168504.5496 98.4293 -2300.8196 -2400.5570 534946.2959 -2300.8196 -2400.5570
ENERGY: 1000 1229.3590 2022.5894 3089.0631 0.0000 -193506.0952 26343.9375 744.8229 0.0000 24184.1584 -135892.1647 235.1354 -160076.3232 -135864.0136 218.4783 -15.3735 -4.9595 523084.7431 -5.9191 -6.0358
ENERGY: 2000 1389.9547 2120.0466 3124.7618 0.0000 -184161.8242 23437.0650 773.9795 0.0000 27756.0316 -125559.9851 269.8637 -153316.0167 -125516.3387 264.4757 53.4454 -15.4422 515802.3854 -30.0539 -30.2250
ENERGY: 3000 1523.0044 2198.5969 3167.2588 0.0000 -179466.2738 21677.7547 773.3457 0.0000 29423.7221 -120702.5912 286.0782 -150126.3133 -120659.0447 283.9699 -7.6023 -13.6888 509891.4069 -18.0279 -18.4872
ENERGY: 4000 1491.1118 2266.7653 3129.8447 0.0000 -177012.1479 20689.7223 789.6561 0.0000 30525.0384 -118120.0093 296.7859 -148645.0478 -118072.1214 293.5575 0.9988 7.1483 506008.2335 -14.7495 -14.2325
ENERGY: 5000 1568.9881 2279.8546 3142.5067 0.0000 -175941.6975 20321.8324 826.5427 0.0000 30580.6593 -117221.3137 297.3267 -147801.9730 -117177.4854 296.3753 14.5795 -2.9422 506542.6110 1.0546 1.2755
TCL: Setting parameter constraintScaling to 5.0
TCL: Running for 5000 steps
ETITLE: TS BOND ANGLE DIHED IMPRP ELECT VDW BOUNDARY MISC KINETIC TOTAL TEMP POTENTIAL TOTAL3 TEMPAVG PRESSURE GPRESSURE VOLUME PRESSAVG GPRESSAVG
ENERGY: 5000 1568.9881 2279.8546 3142.5067 0.0000 -175941.6975 20321.8324 413.2713 0.0000 30578.5826 -117636.6618 297.3065 -148215.2444 -117596.4872 297.3065 -76.0005 -95.1016 506542.6110 -76.0005 -95.1016
ENERGY: 6000 1602.0851 2339.3401 3181.0833 0.0000 -176124.5851 20361.6898 630.6843 0.0000 30617.7706 -117391.9320 297.6875 -148009.7026 -117355.4668 297.1175 21.2295 -76.9459 505109.9133 -12.5591 -13.4470
ENERGY: 7000 1623.5501 2222.6316 3168.1116 0.0000 -175789.8874 20374.7245 622.4766 0.0000 30710.3219 -117068.0710 298.5874 -147778.3930 -117017.5997 299.5481 -15.6550 23.1763 503458.5228 6.2472 6.1506
ENERGY: 8000 1606.7087 2326.5845 3134.8517 0.0000 -175801.6041 20323.9955 641.0011 0.0000 31054.3380 -116714.1246 301.9322 -147768.4626 -116662.4795 299.5356 -89.7666 35.3288 502565.5721 -4.3660 -4.4656
ENERGY: 9000 1554.2963 2326.3166 3163.7961 0.0000 -175600.5378 20150.2080 647.6269 0.0000 31028.8854 -116729.4086 301.6847 -147758.2940 -116685.0949 300.3561 64.8720 15.0116 502045.5856 -13.0132 -13.7691
ENERGY: 10000 1598.6059 2337.3185 3151.9257 0.0000 -175129.8934 19952.9119 648.5166 0.0000 31124.4451 -116316.1698 302.6138 -147440.6149 -116279.1657 301.2734 23.7823 15.6970 502945.8666 8.1666 8.5428
TCL: Setting parameter constraintScaling to 2.5
TCL: Running for 5000 steps
ETITLE: TS BOND ANGLE DIHED IMPRP ELECT VDW BOUNDARY MISC KINETIC TOTAL TEMP POTENTIAL TOTAL3 TEMPAVG PRESSURE GPRESSURE VOLUME PRESSAVG GPRESSAVG
ENERGY: 10000 1598.6059 2337.3185 3151.9257 0.0000 -175129.8934 19952.9119 324.2583 0.0000 31122.3772 -116642.4959 302.5937 -147764.8732 -116594.7165 302.5937 -61.8667 -66.1849 502945.8666 -61.8667 -66.1849
ENERGY: 11000 1678.2225 2295.3503 3173.1442 0.0000 -175497.8412 20047.8544 489.0372 0.0000 30845.4725 -116968.7602 299.9014 -147814.2326 -116919.7403 300.3634 -29.4432 -17.6033 502150.7481 10.8511 10.7990
ENERGY: 12000 1569.8108 2337.2980 3195.5325 0.0000 -175396.1996 19873.4579 525.2081 0.0000 30914.2543 -116980.6381 300.5702 -147894.8924 -116938.5061 298.9939 -51.0251 -20.2924 501708.9036 23.7145 23.5024
ENERGY: 13000 1637.2061 2325.0709 3178.8887 0.0000 -175731.0114 20081.7436 503.3775 0.0000 30687.7351 -117316.9896 298.3678 -148004.7247 -117267.9081 298.6254 14.2310 20.1615 501845.7226 5.1152 5.0470
ENERGY: 14000 1631.5004 2422.2283 3159.4966 0.0000 -175310.7471 19795.0026 487.1005 0.0000 30822.9763 -116992.4424 299.6827 -147815.4188 -116949.1204 299.8040 12.2566 41.6173 501380.1292 13.7864 14.0472
ENERGY: 15000 1570.1627 2273.5007 3209.1131 0.0000 -175689.6227 20120.1271 536.2965 0.0000 30802.5715 -117177.8510 299.4843 -147980.4225 -117128.2257 299.1346 -183.5836 -73.5946 499403.3306 -12.9148 -12.8039
TCL: Setting parameter constraintScaling to 1.25
TCL: Running for 5000 steps
ETITLE: TS BOND ANGLE DIHED IMPRP ELECT VDW BOUNDARY MISC KINETIC TOTAL TEMP POTENTIAL TOTAL3 TEMPAVG PRESSURE GPRESSURE VOLUME PRESSAVG GPRESSAVG
ENERGY: 15000 1570.1627 2273.5007 3209.1131 0.0000 -175689.6227 20120.1271 268.1482 0.0000 30800.5171 -117448.0536 299.4643 -148248.5707 -117405.8272 299.4643 -218.4463 -108.6788 499403.3306 -218.4463 -108.6788
ENERGY: 16000 1621.3791 2367.9907 3175.9904 0.0000 -175588.6836 20046.1713 390.9527 0.0000 30808.4368 -117177.7624 299.5413 -147986.1992 -117129.4533 299.7128 -95.6859 -2.2173 498874.0222 5.1198 5.4301
ENERGY: 17000 1632.2525 2409.8271 3204.5625 0.0000 -175505.2154 19999.9375 388.4979 0.0000 30731.5445 -117138.5935 298.7937 -147870.1380 -117104.3007 299.9244 15.4736 10.1716 499281.6363 -4.9804 -4.5656
ENERGY: 18000 1610.0385 2420.7615 3191.9804 0.0000 -175788.7993 20007.0871 414.9444 0.0000 30846.1982 -117297.7893 299.9085 -148143.9875 -117242.6113 299.6630 -85.8953 17.8313 498068.4033 -7.8654 -7.3175
ENERGY: 19000 1623.7025 2335.8833 3184.6680 0.0000 -175501.7258 19762.3094 392.1437 0.0000 30894.8724 -117308.1465 300.3817 -148203.0189 -117246.7120 299.4598 10.9770 10.6264 500077.2007 7.4845 8.1274
ENERGY: 20000 1593.9670 2346.9664 3168.2210 0.0000 -175646.3609 19967.0310 391.6814 0.0000 30605.1866 -117573.3075 297.5652 -148178.4941 -117525.3094 298.4014 -7.3230 9.3599 499381.5359 5.1402 5.3481
TCL: Setting parameter constraintScaling to 0.625
TCL: Running for 5000 steps
ETITLE: TS BOND ANGLE DIHED IMPRP ELECT VDW BOUNDARY MISC KINETIC TOTAL TEMP POTENTIAL TOTAL3 TEMPAVG PRESSURE GPRESSURE VOLUME PRESSAVG GPRESSAVG
ENERGY: 20000 1593.9670 2346.9664 3168.2210 0.0000 -175646.3609 19967.0310 195.8407 0.0000 30603.1408 -117771.1940 297.5453 -148374.3348 -117725.2116 297.5453 -101.7212 -84.9005 499381.5359 -101.7212 -84.9005
ENERGY: 21000 1617.3510 2451.8642 3188.8686 0.0000 -176074.3602 20240.4999 311.6189 0.0000 30643.1243 -117621.0333 297.9341 -148264.1576 -117577.8221 298.0998 -110.7840 -35.3622 498274.3319 7.8945 7.5242
ENERGY: 22000 1627.5349 2358.5142 3219.7946 0.0000 -175779.2251 20082.4123 318.7458 0.0000 30789.6690 -117382.5543 299.3589 -148172.2233 -117335.8577 300.0752 2.0381 63.8082 498133.7416 0.2829 -0.0166
ENERGY: 23000 1661.5523 2412.0235 3208.4321 0.0000 -175977.3403 20178.3480 321.8082 0.0000 30850.1433 -117345.0330 299.9468 -148195.1762 -117296.5934 299.8704 -11.6769 -92.4132 498472.5045 -1.4906 -2.0141
ENERGY: 24000 1619.7169 2359.6911 3220.8176 0.0000 -175971.6325 20120.2206 323.0932 0.0000 30870.1836 -117457.9095 300.1417 -148328.0930 -117415.8634 300.0772 91.7534 45.9075 497415.1273 -11.0497 -10.6854
ENERGY: 25000 1612.1662 2365.6676 3192.1651 0.0000 -176291.0456 20217.8426 317.5938 0.0000 30714.2987 -117871.3117 298.6261 -148585.6104 -117809.7662 298.7466 -1.2061 -13.0531 497585.0112 -6.7818 -7.1092
TCL: Setting parameter constraintScaling to 0.3125
TCL: Running for 5000 steps
ETITLE: TS BOND ANGLE DIHED IMPRP ELECT VDW BOUNDARY MISC KINETIC TOTAL TEMP POTENTIAL TOTAL3 TEMPAVG PRESSURE GPRESSURE VOLUME PRESSAVG GPRESSAVG
ENERGY: 25000 1612.1662 2365.6676 3192.1651 0.0000 -176291.0456 20217.8426 158.7969 0.0000 30712.2538 -118032.1535 298.6062 -148744.4073 -117987.6992 298.6062 -12.2773 -25.3920 497585.0112 -12.2773 -25.3920
ENERGY: 26000 1674.2262 2396.4868 3244.6157 0.0000 -176199.4529 20142.4415 261.6669 0.0000 30721.6142 -117758.4016 298.6972 -148480.0158 -117712.3224 299.4408 -92.4327 -35.3606 497306.6157 6.1650 6.5261
ENERGY: 27000 1609.5915 2433.8757 3257.0636 0.0000 -176069.4747 20059.1714 257.4757 0.0000 30972.4159 -117479.8810 301.1357 -148452.2969 -117426.4597 299.4544 -47.3392 -7.0662 496694.4984 -4.6639 -4.5640
ENERGY: 28000 1639.1529 2353.6867 3236.9024 0.0000 -176057.0486 20271.3555 268.1210 0.0000 30682.0158 -117605.8142 298.3122 -148287.8300 -117560.5721 298.9848 -150.7326 -36.6970 496724.9208 0.5330 0.1238
ENERGY: 29000 1659.4533 2460.6975 3211.7818 0.0000 -175931.1504 20310.6034 252.7888 0.0000 30893.6991 -117142.1265 300.3703 -148035.8256 -117098.9638 300.4639 -9.7523 35.7513 497539.1718 6.4583 6.3336
ENERGY: 30000 1679.5389 2399.5081 3216.5224 0.0000 -175988.5418 20199.7620 255.2418 0.0000 30592.3009 -117645.6677 297.4399 -148237.9686 -117601.8969 298.9754 -6.2292 -4.8648 496855.2960 -4.3262 -4.2440
TCL: Setting parameter constraintScaling to 0.15625
TCL: Running for 5000 steps
ETITLE: TS BOND ANGLE DIHED IMPRP ELECT VDW BOUNDARY MISC KINETIC TOTAL TEMP POTENTIAL TOTAL3 TEMPAVG PRESSURE GPRESSURE VOLUME PRESSAVG GPRESSAVG
ENERGY: 30000 1679.5389 2399.5081 3216.5224 0.0000 -175988.5418 20199.7620 127.6209 0.0000 30590.2341 -117775.3554 297.4198 -148365.5895 -117732.4081 297.4198 -34.9862 -30.3607 496855.2960 -34.9862 -30.3607
ENERGY: 31000 1599.6882 2412.9356 3210.5435 0.0000 -175603.8713 19977.9427 200.7170 0.0000 30621.4526 -117580.5917 297.7233 -148202.0443 -117538.2204 300.1253 34.9223 89.8405 497545.4607 0.9374 0.1717
ENERGY: 32000 1643.7992 2398.2209 3196.6265 0.0000 -175634.4897 20113.5959 199.7344 0.0000 31031.2762 -117051.2365 301.7079 -148082.5127 -117004.3005 301.2250 18.3354 84.9995 496762.9538 -13.6560 -14.2745
ENERGY: 33000 1617.4322 2450.4762 3225.9979 0.0000 -175452.1866 19922.9682 202.0635 0.0000 31088.4713 -116944.7773 302.2640 -148033.2486 -116898.5059 301.6434 -27.9695 -25.6631 495955.8058 0.6604 0.3277
ENERGY: 34000 1650.4312 2445.1616 3246.3295 0.0000 -175537.4922 19932.3938 209.8124 0.0000 30767.8363 -117285.5275 299.1466 -148053.3638 -117242.1778 300.3300 -4.6528 10.3795 497905.0844 19.9396 19.5624
ENERGY: 35000 1621.9136 2411.0957 3196.8648 0.0000 -175878.6128 19999.3034 222.6354 0.0000 30594.0147 -117832.7852 297.4566 -148426.8000 -117790.1774 298.5160 -108.6123 12.6876 497842.4536 -5.9342 -6.3169
TCL: Setting parameter constraintScaling to 0.078125
TCL: Running for 5000 steps
ETITLE: TS BOND ANGLE DIHED IMPRP ELECT VDW BOUNDARY MISC KINETIC TOTAL TEMP POTENTIAL TOTAL3 TEMPAVG PRESSURE GPRESSURE VOLUME PRESSAVG GPRESSAVG
ENERGY: 35000 1621.9136 2411.0957 3196.8648 0.0000 -175878.6129 19999.3034 111.3177 0.0000 30591.9759 -117946.1418 297.4367 -148538.1177 -117903.8815 297.4367 -149.8111 -22.2565 497842.4536 -149.8111 -22.2565
ENERGY: 36000 1560.8587 2395.2545 3196.7676 0.0000 -175625.0824 20030.5785 156.4490 0.0000 30605.7479 -117679.4264 297.5707 -148285.1743 -117638.0904 299.1870 159.2424 96.4496 497215.1080 10.4145 10.5474
ENERGY: 37000 1621.7333 2388.0126 3218.4123 0.0000 -175903.3131 20023.9918 161.7728 0.0000 30749.4466 -117739.9439 298.9678 -148489.3904 -117692.0989 298.7310 10.9779 30.1363 495851.7886 -9.0944 -8.9871
ENERGY: 38000 1629.7562 2426.6458 3217.6928 0.0000 -175845.6312 20122.0354 151.7731 0.0000 30886.4239 -117411.3040 300.2996 -148297.7279 -117365.0644 299.7247 84.0104 31.7433 497224.9736 9.7568 8.8122
ENERGY: 39000 1608.8758 2397.7537 3251.9081 0.0000 -175710.7619 19899.0533 173.2570 0.0000 30673.1439 -117706.7702 298.2259 -148379.9140 -117650.3193 298.8500 -27.2406 46.5978 497003.2948 -7.7060 -7.2192
ENERGY: 40000 1622.8914 2418.9656 3197.1627 0.0000 -175794.5501 19964.2702 179.4866 0.0000 30995.9907 -117415.7831 301.3649 -148411.7737 -117365.0976 299.1271 47.7284 38.9823 497396.4499 4.3921 4.4844
TCL: Setting parameter constraintScaling to 0.0390625
TCL: Running for 5000 steps
ETITLE: TS BOND ANGLE DIHED IMPRP ELECT VDW BOUNDARY MISC KINETIC TOTAL TEMP POTENTIAL TOTAL3 TEMPAVG PRESSURE GPRESSURE VOLUME PRESSAVG GPRESSAVG
ENERGY: 40000 1622.8914 2418.9656 3197.1627 0.0000 -175794.5502 19964.2702 89.7433 0.0000 30993.9360 -117507.5810 301.3449 -148501.5170 -117467.0701 301.3449 28.8974 16.4818 497396.4499 28.8974 16.4818
ENERGY: 41000 1620.8098 2396.6458 3229.5026 0.0000 -175755.3437 20130.5098 124.9806 0.0000 30693.8687 -117559.0264 298.4274 -148252.8951 -117527.0883 299.6658 80.4625 102.1605 496141.9067 -3.2302 -2.8251
ENERGY: 42000 1629.9640 2406.8791 3217.1978 0.0000 -176193.3672 20114.9136 137.2754 0.0000 30936.8839 -117750.2536 300.7902 -148687.1375 -117705.5118 300.9138 -46.3475 35.9306 495105.8246 -5.2917 -5.2478
ENERGY: 43000 1638.7948 2424.9938 3229.9236 0.0000 -175882.8911 20011.5092 129.8099 0.0000 30743.1486 -117704.7112 298.9066 -148447.8598 -117666.6060 299.1127 -38.0735 103.1453 496568.6852 9.5534 10.0116
ENERGY: 44000 1683.7530 2414.5418 3190.4452 0.0000 -175854.9128 20041.8357 134.7712 0.0000 30596.5779 -117792.9880 297.4815 -148389.5659 -117754.8652 299.5094 -92.1107 65.0947 496592.6602 -1.3952 -1.1678
ENERGY: 45000 1633.3158 2364.2311 3212.1813 0.0000 -176040.5101 20139.4728 135.2566 0.0000 30871.8371 -117684.2155 300.1578 -148556.0526 -117637.7821 299.9163 6.2413 -18.5981 498607.6240 19.1651 18.7508
TCL: Setting parameter constraintScaling to 0.01953125
TCL: Running for 5000 steps
ETITLE: TS BOND ANGLE DIHED IMPRP ELECT VDW BOUNDARY MISC KINETIC TOTAL TEMP POTENTIAL TOTAL3 TEMPAVG PRESSURE GPRESSURE VOLUME PRESSAVG GPRESSAVG
ENERGY: 45000 1633.3158 2364.2311 3212.1813 0.0000 -176040.5101 20139.4728 67.6283 0.0000 30869.7726 -117753.9083 300.1377 -148623.6809 -117709.5286 300.1377 -8.8215 -34.2378 498607.6240 -8.8215 -34.2378
ENERGY: 46000 1640.7769 2353.0250 3184.7799 0.0000 -175893.3877 20072.5737 80.4274 0.0000 30857.2786 -117704.5262 300.0162 -148561.8048 -117657.3906 298.7609 -153.1235 -74.5785 497895.6555 -4.0145 -4.1029
ENERGY: 47000 1554.3296 2440.6583 3236.1330 0.0000 -176179.3730 20015.7844 88.3540 0.0000 30877.8908 -117966.2229 300.2166 -148844.1136 -117914.8097 299.0392 -173.8088 -175.2352 495759.7892 3.8930 3.3575
ENERGY: 48000 1657.8478 2388.9827 3200.0145 0.0000 -176049.5824 20260.3880 89.5859 0.0000 30727.6809 -117725.0826 298.7562 -148452.7635 -117686.3694 299.4613 46.1205 13.0471 496689.6900 -12.9059 -13.4762
ENERGY: 49000 1668.6322 2432.7838 3232.5857 0.0000 -175577.0662 20028.7594 86.7652 0.0000 30806.1654 -117321.3744 299.5193 -148127.5398 -117281.0191 300.4555 99.8122 95.7827 496429.5268 1.5951 1.8581
ENERGY: 50000 1648.5957 2433.3860 3182.2477 0.0000 -175907.9290 19914.6671 93.2710 0.0000 30879.9235 -117755.8379 300.2364 -148635.7614 -117717.9823 299.6105 -56.4652 -60.3521 494575.6874 -15.8869 -15.7765
TCL: Setting parameter constraintScaling to 0
TCL: Running for 5000 steps
ETITLE: TS BOND ANGLE DIHED IMPRP ELECT VDW BOUNDARY MISC KINETIC TOTAL TEMP POTENTIAL TOTAL3 TEMPAVG PRESSURE GPRESSURE VOLUME PRESSAVG GPRESSAVG
ENERGY: 50000 1648.5957 2433.3860 3182.2477 0.0000 -175907.9290 19914.6671 0.0000 0.0000 30877.9085 -117851.1239 300.2168 -148729.0324 -117808.7332 300.2168 -66.5581 -73.0001 494575.6874 -66.5581 -73.0001
ENERGY: 51000 1639.0727 2383.2470 3190.0715 0.0000 -175936.4750 20073.1461 0.0000 0.0000 30764.0750 -117886.8626 299.1100 -148650.9377 -117835.6900 299.5386 43.5686 68.0039 495727.1089 5.1189 5.1069
ENERGY: 52000 1627.7645 2369.4329 3183.8876 0.0000 -175633.3907 19897.0408 0.0000 0.0000 30854.7307 -117700.5340 299.9914 -148555.2647 -117656.3864 299.3893 -140.9368 -61.0222 496519.2903 -4.9935 -5.1550
ENERGY: 53000 1616.1106 2416.0000 3207.5923 0.0000 -175925.7135 19929.3316 0.0000 0.0000 30976.4219 -117780.2571 301.1746 -148756.6790 -117736.7932 299.7728 -67.8670 -18.0597 495332.0043 -7.4397 -7.6448
ENERGY: 54000 1610.7420 2436.5335 3166.2503 0.0000 -176372.7412 20165.9802 0.0000 0.0000 30721.4580 -118271.7773 298.6957 -148993.2353 -118226.2915 298.8510 -23.8074 -109.4986 494905.5806 -8.4191 -8.6795
ENERGY: 55000 1614.4183 2421.2565 3194.0322 0.0000 -176013.1416 20105.9428 0.0000 0.0000 30786.9279 -117890.5640 299.3322 -148677.4919 -117847.9239 298.9872 -22.4297 -8.4422 497103.4237 5.0113 5.0392
