Info: SIMULATION PARAMETERS:
Info: TIMESTEP               2
Info: NUMBER OF STEPS        0
Info: STEPS PER CYCLE        10
Info: PERIODIC CELL BASIS 1  72.449 0 0
Info: PERIODIC CELL BASIS 2  0 93.247 0
Info: PERIODIC CELL BASIS 3  0 0 79.185
Info: PERIODIC CELL CENTER   -0.248 -0.156 -0.047
Info: WRAPPING WATERS AROUND PERIODIC BOUNDARIES ON OUTPUT.
Info: WRAPPING ALL CLUSTERS AROUND PERIODIC BOUNDARIES ON OUTPUT.
Info: FIRST LDB TIMESTEP     50
Info: LAST LDB TIMESTEP     -1
Info: HOM BACKGROUND SCALING 1
Info: PME BACKGROUND SCALING 1
Info: MIN ATOMS PER PATCH    40
Info: INITIAL TEMPERATURE    0
Info: CENTER OF MASS MOVING INITIALLY? NO
Info: DIELECTRIC             1
Info: EXCLUDE                SCALED ONE-FOUR
Info: 1-4 ELECTROSTATICS SCALED BY 0.833333
Info: MODIFIED 1-4 VDW PARAMETERS WILL BE USED
Info: NO DCD TRAJECTORY OUTPUT
Info: NO EXTENDED SYSTEM TRAJECTORY OUTPUT
Info: NO VELOCITY DCD OUTPUT
Info: NO FORCE DCD OUTPUT
Info: OUTPUT FILENAME        ../replicas/rep41/equilibration/eq0
Info: NO RESTART FILE
Info: SWITCHING ACTIVE
Info: SWITCHING ON           10
Info: SWITCHING OFF          12
Info: PAIRLIST DISTANCE      13.5
Info: PAIRLIST SHRINK RATE   0.01
Info: PAIRLIST GROW RATE     0.01
Info: PAIRLIST TRIGGER       0.3
Info: PAIRLISTS PER CYCLE    2
Info: PAIRLISTS ENABLED
Info: MARGIN                 0
Info: HYDROGEN GROUP CUTOFF  2.5
Info: PATCH DIMENSION        16
Info: ENERGY OUTPUT STEPS    500
Info: CROSSTERM ENERGY INCLUDED IN DIHEDRAL
Info: TIMING OUTPUT STEPS    5000
Info: PRESSURE OUTPUT STEPS  500
Info: HARMONIC CONSTRAINTS ACTIVE
Info: HARMONIC CONS EXP      2
Info: HARMONIC CONS SCALING  10
Info: CONJUGATE GRADIENT MINIMIZATION ACTIVE
Info: LINE MINIMIZATION GOAL = 0.001
Info: BABY STEP SIZE = 0.01
Info: TINY STEP SIZE = 1e-06
Info: PARTICLE MESH EWALD (PME) ACTIVE
Info: PME TOLERANCE               1e-06
Info: PME EWALD COEFFICIENT       0.257952
Info: PME INTERPOLATION ORDER     4
Info: PME GRID DIMENSIONS         80 96 80
Info: PME MAXIMUM GRID SPACING    1
Info: FULL ELECTROSTATIC EVALUATION FREQUENCY      2
Info: USING VERLET I (r-RESPA) MTS SCHEME.
Info: C1 SPLITTING OF LONG RANGE ELECTROSTATICS
Info: PLACING ATOMS IN PATCHES BY HYDROGEN GROUPS
Info: RIGID BONDS TO HYDROGEN : ALL
Info:         ERROR TOLERANCE : 1e-05
Info:          MAX ITERATIONS : 100
Info: RIGID WATER USING SETTLE ALGORITHM
Info: RANDOM NUMBER SEED     1503691275
Info: USE HYDROGEN BONDS?    NO
Info: Using AMBER format force field!
Info: AMBER PARM FILE        ../build/complex.top
Info: COORDINATE PDB         ../build/complex.pdb
Info: Exclusions in PARM file will be ignored!
Info: SCNB (VDW SCALING)     2
Info: USING ARITHMETIC MEAN TO COMBINE L-J SIGMA PARAMETERS
Info: SUMMARY OF PARAMETERS:
Info: 71 BONDS
Info: 145 ANGLES
Info: 76 DIHEDRAL
Info: 0 IMPROPER
Info: 0 CROSSTERM
Info: 0 VDW
Info: 190 VDW_PAIRS
Info: 0 NBTHOLE_PAIRS
Info: STRUCTURE SUMMARY:
Info: 49394 ATOMS
Info: 49448 BONDS
Info: 8698 ANGLES
Info: 18780 DIHEDRALS
Info: 0 IMPROPERS
Info: 0 CROSSTERMS
Info: 0 EXCLUSIONS
Info: 2336 CONSTRAINTS
Info: 47058 RIGID BONDS
Info: 101124 DEGREES OF FREEDOM
Info: 17225 HYDROGEN GROUPS
Info: 4 ATOMS IN LARGEST HYDROGEN GROUP
Info: 17225 MIGRATION GROUPS
Info: 4 ATOMS IN LARGEST MIGRATION GROUP
Info: TOTAL MASS = 301478 amu
Info: TOTAL CHARGE = 1.00115e-05 e
Info: MASS DENSITY = 0.935846 g/cm^3
Info: ATOM DENSITY = 0.0923345 atoms/A^3
Info: ADDED 70656 IMPLICIT EXCLUSIONS
Info: NONBONDED TABLE R-SQUARED SPACING: 0.0625
Info: NONBONDED TABLE SIZE: 769 POINTS
Info: REMOVING COM VELOCITY 0 0 0
TCL: Minimizing for 100 steps
ETITLE: TS BOND ANGLE DIHED IMPRP ELECT VDW BOUNDARY MISC KINETIC TOTAL TEMP POTENTIAL TOTAL3 TEMPAVG PRESSURE GPRESSURE VOLUME PRESSAVG GPRESSAVG
ENERGY: 0 155.4176 1012.2698 2855.7272 0.0000 -154496.7912 207729.2052 0.0468 0.0000 0.0000 57255.8754 0.0000 57255.8754 57255.8754 0.0000 116350.2532 86546.1670 534946.2959 116350.2532 86546.1670
ENERGY: 20 304.7546 935.7911 2893.4663 0.0000 -158672.9403 17936.6596 143.9454 0.0000 0.0000 -136458.3233 0.0000 -136458.3233 -136458.3233 0.0000 16523.9389 -239.4555 534946.2959 16523.9389 -239.4555
ENERGY: 40 198.7435 799.5726 2896.9273 0.0000 -162811.4535 16417.9536 221.3030 0.0000 0.0000 -142276.9536 0.0000 -142276.9536 -142276.9536 0.0000 15011.2702 -2135.4699 534946.2959 15011.2702 -2135.4699
ENERGY: 60 130.5284 715.3440 2898.2166 0.0000 -167496.1562 15446.7541 315.2796 0.0000 0.0000 -147990.0337 0.0000 -147990.0337 -147990.0337 0.0000 13793.8838 -3799.3985 534946.2959 13793.8838 -3799.3985
ENERGY: 80 431.2740 765.6310 2904.3785 0.0000 -169937.5249 15121.1529 372.0121 0.0000 0.0000 -150343.0765 0.0000 -150343.0765 -150343.0765 0.0000 13270.3318 -4577.2436 534946.2959 13270.3318 -4577.2436
ENERGY: 100 129.7153 708.0656 2904.2780 0.0000 -171050.0697 15018.6528 384.2000 0.0000 0.0000 -151905.1581 0.0000 -151905.1581 -151905.1581 0.0000 13092.9121 -4843.6331 534946.2959 13092.9121 -4843.6331
TCL: Setting parameter constraintScaling to 5.0
TCL: Minimizing for 100 steps
ETITLE: TS BOND ANGLE DIHED IMPRP ELECT VDW BOUNDARY MISC KINETIC TOTAL TEMP POTENTIAL TOTAL3 TEMPAVG PRESSURE GPRESSURE VOLUME PRESSAVG GPRESSAVG
ENERGY: 100 129.7153 708.0656 2904.2780 0.0000 -171050.0697 15018.6528 192.1000 0.0000 0.0000 -152097.2581 0.0000 -152097.2581 -152097.2581 0.0000 13703.5073 -22944.4559 534946.2959 13703.5073 -22944.4559
ENERGY: 120 118.6821 680.2877 2909.9066 0.0000 -172396.3207 14830.1201 259.9551 0.0000 0.0000 -153597.3691 0.0000 -153597.3691 -153597.3691 0.0000 13320.9462 -4756.3090 534946.2959 13320.9462 -4756.3090
ENERGY: 140 109.1491 671.1468 2912.0863 0.0000 -174830.2884 14716.1437 337.7314 0.0000 0.0000 -156084.0310 0.0000 -156084.0310 -156084.0310 0.0000 12908.9550 -5423.1532 534946.2959 12908.9550 -5423.1532
ENERGY: 160 303.0300 691.2557 2915.1772 0.0000 -176082.5162 14739.2607 369.8374 0.0000 0.0000 -157063.9553 0.0000 -157063.9553 -157063.9553 0.0000 12780.5556 -5675.9244 534946.2959 12780.5556 -5675.9244
ENERGY: 180 182.1985 640.7498 2917.0630 0.0000 -177289.3142 14805.0501 391.8954 0.0000 0.0000 -158352.3573 0.0000 -158352.3573 -158352.3573 0.0000 12715.3658 -5865.0799 534946.2959 12715.3658 -5865.0799
ENERGY: 200 200.8027 672.8160 2923.8887 0.0000 -179263.1983 15029.7016 438.8882 0.0000 0.0000 -159997.1010 0.0000 -159997.1010 -159997.1010 0.0000 12652.1309 -6141.9160 534946.2959 12652.1309 -6141.9160
TCL: Setting parameter constraintScaling to 2.5
TCL: Minimizing for 100 steps
ETITLE: TS BOND ANGLE DIHED IMPRP ELECT VDW BOUNDARY MISC KINETIC TOTAL TEMP POTENTIAL TOTAL3 TEMPAVG PRESSURE GPRESSURE VOLUME PRESSAVG GPRESSAVG
ENERGY: 200 200.8027 672.8160 2923.8887 0.0000 -179263.1983 15029.7016 219.4441 0.0000 0.0000 -160216.5451 0.0000 -160216.5451 -160216.5451 0.0000 13194.6025 -25226.9551 534946.2959 13194.6025 -25226.9551
ENERGY: 220 129.4547 648.4377 2922.2170 0.0000 -180050.7298 15072.6329 269.1104 0.0000 0.0000 -161008.8770 0.0000 -161008.8770 -161008.8770 0.0000 13073.4397 -5815.6673 534946.2959 13073.4397 -5815.6673
ENERGY: 240 166.8109 631.3673 2922.8578 0.0000 -181876.9777 15336.5331 358.9053 0.0000 0.0000 -162460.5033 0.0000 -162460.5033 -162460.5033 0.0000 12913.7416 -6145.9977 534946.2959 12913.7416 -6145.9977
ENERGY: 260 364.6344 681.2919 2926.7254 0.0000 -184022.7949 15849.7030 463.6579 0.0000 0.0000 -163736.7823 0.0000 -163736.7823 -163736.7823 0.0000 12946.5463 -6360.9544 534946.2959 12946.5463 -6360.9544
ENERGY: 280 136.1707 645.1720 2925.3863 0.0000 -186222.3879 16666.6373 538.8924 0.0000 0.0000 -165310.1291 0.0000 -165310.1291 -165310.1291 0.0000 13194.7717 -6339.7833 534946.2959 13194.7717 -6339.7833
ENERGY: 300 129.0635 634.4066 2921.8505 0.0000 -187696.9296 17313.5155 557.1158 0.0000 0.0000 -166140.9777 0.0000 -166140.9777 -166140.9777 0.0000 13543.4204 -6164.0168 534946.2959 13543.4204 -6164.0168
TCL: Setting parameter constraintScaling to 1.25
TCL: Minimizing for 100 steps
ETITLE: TS BOND ANGLE DIHED IMPRP ELECT VDW BOUNDARY MISC KINETIC TOTAL TEMP POTENTIAL TOTAL3 TEMPAVG PRESSURE GPRESSURE VOLUME PRESSAVG GPRESSAVG
ENERGY: 300 129.0635 634.4066 2921.8505 0.0000 -187696.9296 17313.5155 278.5579 0.0000 0.0000 -166419.5356 0.0000 -166419.5356 -166419.5356 0.0000 14034.6520 -26315.8861 534946.2959 14034.6520 -26315.8861
ENERGY: 320 135.2085 631.8399 2912.3656 0.0000 -188177.8594 17273.3421 319.0292 0.0000 0.0000 -166906.0741 0.0000 -166906.0741 -166906.0741 0.0000 13913.1824 -5859.6175 534946.2959 13913.1824 -5859.6175
ENERGY: 340 211.6838 635.6924 2899.6754 0.0000 -189817.9308 17635.0891 389.1602 0.0000 0.0000 -168046.6299 0.0000 -168046.6299 -168046.6299 0.0000 13920.2323 -6031.4699 534946.2959 13920.2323 -6031.4699
ENERGY: 360 236.0252 647.2434 2909.1174 0.0000 -190651.8810 17968.0480 380.9532 0.0000 0.0000 -168510.4937 0.0000 -168510.4937 -168510.4937 0.0000 14083.2088 -5954.1336 534946.2959 14083.2088 -5954.1336
ENERGY: 380 174.8085 648.4354 2904.9309 0.0000 -192255.5815 18776.6546 365.3830 0.0000 0.0000 -169385.3691 0.0000 -169385.3691 -169385.3691 0.0000 14624.6451 -5622.3427 534946.2959 14624.6451 -5622.3427
ENERGY: 400 179.2306 657.2237 2910.3028 0.0000 -194360.6655 19832.3533 418.6021 0.0000 0.0000 -170362.9530 0.0000 -170362.9530 -170362.9530 0.0000 15057.4298 -5415.4943 534946.2959 15057.4298 -5415.4943
TCL: Setting parameter constraintScaling to 0.625
TCL: Minimizing for 100 steps
ETITLE: TS BOND ANGLE DIHED IMPRP ELECT VDW BOUNDARY MISC KINETIC TOTAL TEMP POTENTIAL TOTAL3 TEMPAVG PRESSURE GPRESSURE VOLUME PRESSAVG GPRESSAVG
ENERGY: 400 179.2306 657.2237 2910.3028 0.0000 -194360.6655 19832.3533 209.3011 0.0000 0.0000 -170572.2541 0.0000 -170572.2541 -170572.2541 0.0000 15363.6979 -26592.8256 534946.2959 15363.6979 -26592.8256
ENERGY: 420 142.5687 643.9290 2882.9053 0.0000 -194555.7966 19675.1363 231.7730 0.0000 0.0000 -170979.4844 0.0000 -170979.4844 -170979.4844 0.0000 15245.5668 -5247.8545 534946.2959 15245.5668 -5247.8545
ENERGY: 440 166.8208 643.4926 2887.6504 0.0000 -194864.7466 19629.6646 265.0206 0.0000 0.0000 -171272.0976 0.0000 -171272.0976 -171272.0976 0.0000 15108.0812 -5408.1517 534946.2959 15108.0812 -5408.1517
ENERGY: 460 147.2160 636.8498 2882.1105 0.0000 -195210.8535 19701.1205 289.6453 0.0000 0.0000 -171553.9115 0.0000 -171553.9115 -171553.9115 0.0000 15116.5349 -5449.2579 534946.2959 15116.5349 -5449.2579
ENERGY: 480 168.2065 667.8673 2882.0781 0.0000 -196110.8100 20115.4506 293.4986 0.0000 0.0000 -171983.7090 0.0000 -171983.7090 -171983.7090 0.0000 15350.7588 -5321.7272 534946.2959 15350.7588 -5321.7272
ENERGY: 500 163.3416 666.1307 2897.9371 0.0000 -197440.9932 20806.0606 323.1087 0.0000 0.0000 -172584.4146 0.0000 -172584.4146 -172584.4146 0.0000 15676.4890 -5145.5441 534946.2959 15676.4890 -5145.5441
TCL: Setting parameter constraintScaling to 0.3125
TCL: Minimizing for 100 steps
ETITLE: TS BOND ANGLE DIHED IMPRP ELECT VDW BOUNDARY MISC KINETIC TOTAL TEMP POTENTIAL TOTAL3 TEMPAVG PRESSURE GPRESSURE VOLUME PRESSAVG GPRESSAVG
ENERGY: 500 163.3416 666.1307 2897.9371 0.0000 -197440.9932 20806.0606 161.5543 0.0000 0.0000 -172745.9689 0.0000 -172745.9689 -172745.9689 0.0000 15876.8232 -26807.8413 534946.2959 15876.8232 -26807.8413
ENERGY: 520 154.5264 658.5747 2868.5478 0.0000 -197630.7344 20680.5249 175.0856 0.0000 0.0000 -173093.4749 0.0000 -173093.4749 -173093.4749 0.0000 15771.4971 -5073.9476 534946.2959 15771.4971 -5073.9476
ENERGY: 540 154.8978 644.5967 2870.1756 0.0000 -197899.9214 20671.2360 195.3611 0.0000 0.0000 -173363.6542 0.0000 -173363.6542 -173363.6542 0.0000 15675.4266 -5192.4363 534946.2959 15675.4266 -5192.4363
ENERGY: 560 223.3677 662.0267 2863.2506 0.0000 -198302.6720 20812.3831 206.6255 0.0000 0.0000 -173535.0184 0.0000 -173535.0184 -173535.0184 0.0000 15726.9538 -5178.4747 534946.2959 15726.9538 -5178.4747
ENERGY: 580 160.0420 643.9162 2872.0636 0.0000 -199185.9986 21252.5213 214.1003 0.0000 0.0000 -174043.3552 0.0000 -174043.3552 -174043.3552 0.0000 15991.3751 -5026.3064 534946.2959 15991.3751 -5026.3064
ENERGY: 600 158.2738 636.3068 2862.4763 0.0000 -200004.0595 21579.6782 230.9323 0.0000 0.0000 -174536.3920 0.0000 -174536.3920 -174536.3920 0.0000 16155.5746 -4963.5254 534946.2959 16155.5746 -4963.5254
TCL: Setting parameter constraintScaling to 0.15625
TCL: Minimizing for 100 steps
ETITLE: TS BOND ANGLE DIHED IMPRP ELECT VDW BOUNDARY MISC KINETIC TOTAL TEMP POTENTIAL TOTAL3 TEMPAVG PRESSURE GPRESSURE VOLUME PRESSAVG GPRESSAVG
ENERGY: 600 158.2738 636.3068 2862.4763 0.0000 -200004.0595 21579.6782 115.4662 0.0000 0.0000 -174651.8582 0.0000 -174651.8582 -174651.8582 0.0000 16278.4431 -27020.1288 534946.2959 16278.4431 -27020.1288
ENERGY: 620 156.9629 641.1437 2849.9331 0.0000 -200233.1528 21538.1988 127.3287 0.0000 0.0000 -174919.5855 0.0000 -174919.5855 -174919.5855 0.0000 16185.2936 -4960.7555 534946.2959 16185.2936 -4960.7555
ENERGY: 640 191.4058 655.1299 2848.5645 0.0000 -200586.7036 21658.5232 133.0315 0.0000 0.0000 -175100.0488 0.0000 -175100.0488 -175100.0488 0.0000 16219.5325 -4961.4124 534946.2959 16219.5325 -4961.4124
ENERGY: 660 152.9723 643.4231 2844.6747 0.0000 -200949.3776 21781.9745 140.9902 0.0000 0.0000 -175385.3429 0.0000 -175385.3429 -175385.3429 0.0000 16286.0329 -4950.4401 534946.2959 16286.0329 -4950.4401
ENERGY: 680 308.9435 732.3750 2846.9346 0.0000 -201983.3151 22245.6865 156.9757 0.0000 0.0000 -175692.3998 0.0000 -175692.3998 -175692.3998 0.0000 16492.7148 -4890.7121 534946.2959 16492.7148 -4890.7121
ENERGY: 700 158.4153 647.7523 2837.3714 0.0000 -202136.5314 22291.9963 156.7310 0.0000 0.0000 -176044.2649 0.0000 -176044.2649 -176044.2649 0.0000 16562.4992 -4805.9328 534946.2959 16562.4992 -4805.9328
TCL: Setting parameter constraintScaling to 0.078125
TCL: Minimizing for 100 steps
ETITLE: TS BOND ANGLE DIHED IMPRP ELECT VDW BOUNDARY MISC KINETIC TOTAL TEMP POTENTIAL TOTAL3 TEMPAVG PRESSURE GPRESSURE VOLUME PRESSAVG GPRESSAVG
ENERGY: 700 158.4153 647.7523 2837.3714 0.0000 -202136.5314 22291.9963 78.3655 0.0000 0.0000 -176122.6305 0.0000 -176122.6305 -176122.6305 0.0000 16635.4731 -27171.0148 534946.2959 16635.4731 -27171.0148
ENERGY: 720 169.5145 653.1581 2832.5963 0.0000 -202417.4888 22356.4843 82.7009 0.0000 0.0000 -176323.0346 0.0000 -176323.0346 -176323.0346 0.0000 16674.6769 -4748.6447 534946.2959 16674.6769 -4748.6447
ENERGY: 740 190.7703 659.8230 2831.3484 0.0000 -202789.8684 22492.1534 88.2257 0.0000 0.0000 -176527.5477 0.0000 -176527.5477 -176527.5477 0.0000 16687.5062 -4771.7039 534946.2959 16687.5062 -4771.7039
ENERGY: 760 202.3235 650.3420 2826.3129 0.0000 -203334.5681 22718.7579 93.2883 0.0000 0.0000 -176843.5435 0.0000 -176843.5435 -176843.5435 0.0000 16787.5050 -4721.5504 534946.2959 16787.5050 -4721.5504
ENERGY: 780 197.6812 706.1787 2829.4473 0.0000 -203612.1751 22838.0593 95.6757 0.0000 0.0000 -176945.1330 0.0000 -176945.1330 -176945.1330 0.0000 16851.0547 -4698.8584 534946.2959 16851.0547 -4698.8584
ENERGY: 800 201.0886 656.2211 2822.0420 0.0000 -203887.7565 22960.8421 98.1453 0.0000 0.0000 -177149.4175 0.0000 -177149.4175 -177149.4175 0.0000 16920.5582 -4651.7996 534946.2959 16920.5582 -4651.7996
TCL: Setting parameter constraintScaling to 0.0390625
TCL: Minimizing for 100 steps
ETITLE: TS BOND ANGLE DIHED IMPRP ELECT VDW BOUNDARY MISC KINETIC TOTAL TEMP POTENTIAL TOTAL3 TEMPAVG PRESSURE GPRESSURE VOLUME PRESSAVG GPRESSAVG
ENERGY: 800 201.0886 656.2211 2822.0420 0.0000 -203887.7566 22960.8421 49.0727 0.0000 0.0000 -177198.4901 0.0000 -177198.4901 -177198.4901 0.0000 16962.1709 -27258.0292 534946.2959 16962.1709 -27258.0292
ENERGY: 820 187.3275 650.2536 2822.5770 0.0000 -204117.9735 23049.2798 50.6429 0.0000 0.0000 -177357.8927 0.0000 -177357.8927 -177357.8927 0.0000 16996.0572 -4601.6051 534946.2959 16996.0572 -4601.6051
ENERGY: 840 164.5586 646.2029 2819.1957 0.0000 -204437.8440 23186.1039 52.7595 0.0000 0.0000 -177569.0233 0.0000 -177569.0233 -177569.0233 0.0000 17068.5197 -4571.0812 534946.2959 17068.5197 -4571.0812
ENERGY: 860 170.7347 652.6016 2816.0528 0.0000 -204802.5861 23358.8137 54.7328 0.0000 0.0000 -177749.6505 0.0000 -177749.6505 -177749.6505 0.0000 17157.7555 -4514.0719 534946.2959 17157.7555 -4514.0719
ENERGY: 880 170.8957 667.0606 2812.9048 0.0000 -205641.3047 23751.9014 59.5849 0.0000 0.0000 -178178.9571 0.0000 -178178.9571 -178178.9571 0.0000 17348.9368 -4426.2506 534946.2959 17348.9368 -4426.2506
ENERGY: 900 159.6186 654.8848 2808.0889 0.0000 -206057.4238 23945.6629 62.6091 0.0000 0.0000 -178426.5595 0.0000 -178426.5595 -178426.5595 0.0000 17481.7348 -4351.1224 534946.2959 17481.7348 -4351.1224
TCL: Setting parameter constraintScaling to 0.01953125
TCL: Minimizing for 100 steps
ETITLE: TS BOND ANGLE DIHED IMPRP ELECT VDW BOUNDARY MISC KINETIC TOTAL TEMP POTENTIAL TOTAL3 TEMPAVG PRESSURE GPRESSURE VOLUME PRESSAVG GPRESSAVG
ENERGY: 900 159.6186 654.8848 2808.0889 0.0000 -206057.4238 23945.6629 31.3045 0.0000 0.0000 -178457.8641 0.0000 -178457.8641 -178457.8641 0.0000 17506.2393 -27234.1194 534946.2959 17506.2393 -27234.1194
ENERGY: 920 172.3748 650.1443 2807.5292 0.0000 -206296.0948 24037.3855 32.4073 0.0000 0.0000 -178596.2537 0.0000 -178596.2537 -178596.2537 0.0000 17527.7841 -4328.2382 534946.2959 17527.7841 -4328.2382
ENERGY: 940 181.4580 661.0254 2805.8792 0.0000 -206545.8671 24135.6542 33.2297 0.0000 0.0000 -178728.6204 0.0000 -178728.6204 -178728.6204 0.0000 17581.8343 -4298.3256 534946.2959 17581.8343 -4298.3256
ENERGY: 960 284.6948 689.7174 2805.6066 0.0000 -207109.1298 24392.5346 35.6629 0.0000 0.0000 -178900.9135 0.0000 -178900.9135 -178900.9135 0.0000 17661.2401 -4270.5176 534946.2959 17661.2401 -4270.5176
ENERGY: 980 231.4656 665.3515 2801.6064 0.0000 -207654.8368 24678.4454 37.8990 0.0000 0.0000 -179240.0690 0.0000 -179240.0690 -179240.0690 0.0000 17849.3966 -4150.4363 534946.2959 17849.3966 -4150.4363
ENERGY: 1000 170.3323 653.0463 2802.0847 0.0000 -208059.8830 24896.4832 39.9090 0.0000 0.0000 -179498.0274 0.0000 -179498.0274 -179498.0274 0.0000 17970.5969 -4084.6499 534946.2959 17970.5969 -4084.6499
TCL: Setting parameter constraintScaling to 0
TCL: Minimizing for 5000 steps
ETITLE: TS BOND ANGLE DIHED IMPRP ELECT VDW BOUNDARY MISC KINETIC TOTAL TEMP POTENTIAL TOTAL3 TEMPAVG PRESSURE GPRESSURE VOLUME PRESSAVG GPRESSAVG
ENERGY: 1000 170.3323 653.0463 2802.0847 0.0000 -208059.8830 24896.4832 0.0000 0.0000 0.0000 -179537.9364 0.0000 -179537.9364 -179537.9364 0.0000 17999.4582 -27208.2371 534946.2959 17999.4582 -27208.2371
ENERGY: 2000 174.7264 668.9421 2798.9447 0.0000 -215008.4244 27837.8858 0.0000 0.0000 0.0000 -183527.9254 0.0000 -183527.9254 -183527.9254 0.0000 19562.9004 -3267.1034 534946.2959 19562.9004 -3267.1034
ENERGY: 3000 225.6258 683.3211 2796.0575 0.0000 -217682.7804 28933.4036 0.0000 0.0000 0.0000 -185044.3724 0.0000 -185044.3724 -185044.3724 0.0000 20146.5308 -2953.1577 534946.2959 20146.5308 -2953.1577
ENERGY: 4000 164.5408 661.1058 2791.5272 0.0000 -218920.2878 29459.3115 0.0000 0.0000 0.0000 -185843.8024 0.0000 -185843.8024 -185843.8024 0.0000 20418.9301 -2813.5495 534946.2959 20418.9301 -2813.5495
ENERGY: 5000 165.9223 663.9971 2790.7315 0.0000 -219628.5128 29749.8903 0.0000 0.0000 0.0000 -186257.9716 0.0000 -186257.9716 -186257.9716 0.0000 20557.6698 -2751.7955 534946.2959 20557.6698 -2751.7955
ENERGY: 6000 165.7688 663.7149 2791.2218 0.0000 -220060.3257 29932.7374 0.0000 0.0000 0.0000 -186506.8828 0.0000 -186506.8828 -186506.8828 0.0000 20652.9661 -2705.3746 534946.2959 20652.9661 -2705.3746
