Info: SIMULATION PARAMETERS:
Info: TIMESTEP               1
Info: NUMBER OF STEPS        0
Info: STEPS PER CYCLE        10
Info: PERIODIC CELL BASIS 1  72.449 0 0
Info: PERIODIC CELL BASIS 2  0 93.247 0
Info: PERIODIC CELL BASIS 3  0 0 79.185
Info: PERIODIC CELL CENTER   -0.248 -0.156 -0.047
Info: WRAPPING WATERS AROUND PERIODIC BOUNDARIES ON OUTPUT.
Info: WRAPPING ALL CLUSTERS AROUND PERIODIC BOUNDARIES ON OUTPUT.
Info: FIRST LDB TIMESTEP     50
Info: LAST LDB TIMESTEP     -1
Info: HOM BACKGROUND SCALING 1
Info: PME BACKGROUND SCALING 1
Info: MIN ATOMS PER PATCH    40
Info: VELOCITY FILE          ../replicas/rep27/equilibration/eq1.vel
Info: CENTER OF MASS MOVING INITIALLY? NO
Info: DIELECTRIC             1
Info: EXCLUDE                SCALED ONE-FOUR
Info: 1-4 ELECTROSTATICS SCALED BY 0.833333
Info: MODIFIED 1-4 VDW PARAMETERS WILL BE USED
Info: DCD FILENAME           ../replicas/rep27/equilibration/eq2.dcd
Info: DCD FREQUENCY          5000
Info: DCD FIRST STEP         5000
Info: DCD FILE WILL CONTAIN UNIT CELL DATA
Info: XST FILENAME           ../replicas/rep27/equilibration/eq2.xst
Info: XST FREQUENCY          5000
Info: NO VELOCITY DCD OUTPUT
Info: NO FORCE DCD OUTPUT
Info: OUTPUT FILENAME        ../replicas/rep27/equilibration/eq2
Info: RESTART FILENAME       ../replicas/rep27/equilibration/eq2.restart
Info: RESTART FREQUENCY      5000
Info: BINARY RESTART FILES WILL BE USED
Info: SWITCHING ACTIVE
Info: SWITCHING ON           10
Info: SWITCHING OFF          12
Info: PAIRLIST DISTANCE      13.5
Info: PAIRLIST SHRINK RATE   0.01
Info: PAIRLIST GROW RATE     0.01
Info: PAIRLIST TRIGGER       0.3
Info: PAIRLISTS PER CYCLE    2
Info: PAIRLISTS ENABLED
Info: MARGIN                 0.48
Info: HYDROGEN GROUP CUTOFF  2.5
Info: PATCH DIMENSION        16.48
Info: ENERGY OUTPUT STEPS    500
Info: CROSSTERM ENERGY INCLUDED IN DIHEDRAL
Info: TIMING OUTPUT STEPS    5000
Info: PRESSURE OUTPUT STEPS  500
Info: HARMONIC CONSTRAINTS ACTIVE
Info: HARMONIC CONS EXP      2
Info: HARMONIC CONS SCALING  10
Info: LANGEVIN DYNAMICS ACTIVE
Info: LANGEVIN TEMPERATURE   300
Info: LANGEVIN USING BBK INTEGRATOR
Info: LANGEVIN DAMPING COEFFICIENT IS 5 INVERSE PS
Info: LANGEVIN DYNAMICS NOT APPLIED TO HYDROGENS
Info: BERENDSEN PRESSURE COUPLING ACTIVE
Info:     TARGET PRESSURE IS 1 BAR
Info:     COMPRESSIBILITY ESTIMATE IS 4.57e-05 BAR^(-1)
Info:     RELAXATION TIME IS 100 FS
Info:     APPLIED EVERY 2 STEPS
Info:     PRESSURE CONTROL IS GROUP-BASED
Info:       CELL FLUCTUATION IS ISOTROPIC
Info: PARTICLE MESH EWALD (PME) ACTIVE
Info: PME TOLERANCE               1e-06
Info: PME EWALD COEFFICIENT       0.257952
Info: PME INTERPOLATION ORDER     4
Info: PME GRID DIMENSIONS         80 96 80
Info: PME MAXIMUM GRID SPACING    1
Info: FULL ELECTROSTATIC EVALUATION FREQUENCY      2
Info: USING VERLET I (r-RESPA) MTS SCHEME.
Info: C1 SPLITTING OF LONG RANGE ELECTROSTATICS
Info: PLACING ATOMS IN PATCHES BY HYDROGEN GROUPS
Info: RIGID BONDS TO HYDROGEN : WATER
Info:         ERROR TOLERANCE : 1e-05
Info:          MAX ITERATIONS : 100
Info: RIGID WATER USING SETTLE ALGORITHM
Info: RANDOM NUMBER SEED     1503712097
Info: USE HYDROGEN BONDS?    NO
Info: Using AMBER format force field!
Info: AMBER PARM FILE        ../build/complex.top
Info: COORDINATE PDB         ../replicas/rep27/equilibration/eq1.coor
Info: Exclusions in PARM file will be ignored!
Info: SCNB (VDW SCALING)     2
Info: USING ARITHMETIC MEAN TO COMBINE L-J SIGMA PARAMETERS
Info: SUMMARY OF PARAMETERS:
Info: 71 BONDS
Info: 145 ANGLES
Info: 76 DIHEDRAL
Info: 0 IMPROPER
Info: 0 CROSSTERM
Info: 0 VDW
Info: 190 VDW_PAIRS
Info: 0 NBTHOLE_PAIRS
Info: STRUCTURE SUMMARY:
Info: 49394 ATOMS
Info: 49448 BONDS
Info: 8698 ANGLES
Info: 18780 DIHEDRALS
Info: 0 IMPROPERS
Info: 0 CROSSTERMS
Info: 0 EXCLUSIONS
Info: 2336 CONSTRAINTS
Info: 44667 RIGID BONDS
Info: 103515 DEGREES OF FREEDOM
Info: 17225 HYDROGEN GROUPS
Info: 4 ATOMS IN LARGEST HYDROGEN GROUP
Info: 17225 MIGRATION GROUPS
Info: 4 ATOMS IN LARGEST MIGRATION GROUP
Info: TOTAL MASS = 301478 amu
Info: TOTAL CHARGE = 1.00115e-05 e
Info: MASS DENSITY = 0.935846 g/cm^3
Info: ATOM DENSITY = 0.0923345 atoms/A^3
Info: ADDED 70656 IMPLICIT EXCLUSIONS
Info: NONBONDED TABLE R-SQUARED SPACING: 0.0625
Info: NONBONDED TABLE SIZE: 769 POINTS
Info: REMOVING COM VELOCITY 0.0451965 0.0277863 0.0393673
TCL: Running for 5000 steps
ETITLE: TS BOND ANGLE DIHED IMPRP ELECT VDW BOUNDARY MISC KINETIC TOTAL TEMP POTENTIAL TOTAL3 TEMPAVG PRESSURE GPRESSURE VOLUME PRESSAVG GPRESSAVG
ENERGY: 0 390.5064 1190.0273 2917.6709 0.0000 -212928.2012 29739.9443 0.0000 0.0000 9981.9969 -168708.0555 97.0520 -178690.0524 -168698.5203 97.0520 -2269.3361 -2367.9633 534946.2959 -2269.3361 -2367.9633
ENERGY: 1000 1232.6447 1978.2422 3108.1176 0.0000 -193197.3862 26457.9235 806.0904 0.0000 24041.5531 -135572.8147 233.7489 -159614.3678 -135554.7567 219.4185 38.8628 -16.2298 521969.1072 -14.7616 -15.0437
ENERGY: 2000 1460.9164 2155.7023 3143.0149 0.0000 -184256.6112 23543.9055 813.3002 0.0000 28075.1687 -125064.6032 272.9666 -153139.7719 -125022.1385 265.5532 2.1861 23.1436 515689.8111 -22.4984 -22.7328
ENERGY: 3000 1537.6275 2234.2602 3110.4599 0.0000 -179334.0723 21820.6357 776.4965 0.0000 29514.8761 -120339.7164 286.9644 -149854.5925 -120304.2439 284.8542 -9.5938 -19.4128 510040.7292 -33.8898 -33.7308
ENERGY: 4000 1571.5344 2217.5679 3145.1535 0.0000 -177013.0108 20680.8074 809.9261 0.0000 30295.0916 -118292.9298 294.5502 -148588.0214 -118256.8951 293.4762 22.8184 -17.1037 506702.1668 -19.5336 -19.3251
ENERGY: 5000 1543.9068 2216.8294 3130.7287 0.0000 -176223.1830 20485.3343 823.4114 0.0000 30483.4987 -117539.4736 296.3821 -148022.9723 -117499.0118 296.0408 30.8935 -20.4044 504268.1471 -8.1501 -8.0077
TCL: Setting parameter constraintScaling to 5.0
TCL: Running for 5000 steps
ETITLE: TS BOND ANGLE DIHED IMPRP ELECT VDW BOUNDARY MISC KINETIC TOTAL TEMP POTENTIAL TOTAL3 TEMPAVG PRESSURE GPRESSURE VOLUME PRESSAVG GPRESSAVG
ENERGY: 5000 1543.9068 2216.8294 3130.7287 0.0000 -176223.1830 20485.3343 411.7057 0.0000 30481.4240 -117953.2540 296.3619 -148434.6780 -117909.5603 296.3619 16.0229 -32.8876 504268.1471 16.0229 -32.8876
ENERGY: 6000 1588.2527 2282.6207 3188.6657 0.0000 -175817.2010 20316.2446 617.9210 0.0000 30720.9954 -117102.5010 298.6912 -147823.4964 -117049.1395 297.9100 -55.7707 -37.8802 503113.2493 -5.9028 -5.4539
ENERGY: 7000 1627.4335 2335.7550 3138.2360 0.0000 -175387.5810 20116.9157 631.0125 0.0000 30782.4814 -116755.7469 299.2890 -147538.2283 -116708.4921 299.4175 -47.7491 20.4205 502582.7833 0.9002 0.6056
ENERGY: 8000 1613.0207 2330.1580 3148.3135 0.0000 -175202.3844 19895.0166 652.2555 0.0000 30881.9928 -116681.6273 300.2565 -147563.6202 -116638.1560 300.4700 -63.7843 -24.6052 501209.7887 -4.6604 -5.4292
ENERGY: 9000 1556.8405 2321.4512 3167.6127 0.0000 -175326.8742 20026.2319 654.5210 0.0000 30982.7978 -116617.4191 301.2366 -147600.2169 -116570.5553 300.3115 -27.4522 -45.2279 500789.4582 2.1586 2.6855
ENERGY: 10000 1599.5627 2257.7285 3161.8682 0.0000 -175873.4965 20237.4958 648.6319 0.0000 30739.5582 -117228.6512 298.8716 -147968.2094 -117181.0979 299.3800 63.1454 -37.0466 500240.8451 -8.5653 -8.7260
TCL: Setting parameter constraintScaling to 2.5
TCL: Running for 5000 steps
ETITLE: TS BOND ANGLE DIHED IMPRP ELECT VDW BOUNDARY MISC KINETIC TOTAL TEMP POTENTIAL TOTAL3 TEMPAVG PRESSURE GPRESSURE VOLUME PRESSAVG GPRESSAVG
ENERGY: 10000 1599.5627 2257.7285 3161.8682 0.0000 -175873.4965 20237.4958 324.3159 0.0000 30737.5075 -117555.0179 298.8517 -148292.5253 -117508.6921 298.8517 26.4942 -73.4844 500240.8451 26.4942 -73.4844
ENERGY: 11000 1574.4032 2391.8277 3193.2323 0.0000 -175484.7771 19941.1105 524.6827 0.0000 30671.1053 -117188.4153 298.2061 -147859.5206 -117143.0815 299.0331 -104.5722 -1.5608 500600.0309 -4.7100 -4.1383
ENERGY: 12000 1599.1303 2381.7365 3183.4862 0.0000 -175544.9859 19919.3954 500.2738 0.0000 30811.7447 -117149.2191 299.5735 -147960.9637 -117104.2513 298.4830 -102.1955 -5.7476 501452.8027 -2.9635 -3.1679
ENERGY: 13000 1682.0831 2388.3893 3166.6542 0.0000 -175669.0813 20014.4821 511.9871 0.0000 30807.3586 -117098.1269 299.5309 -147905.4855 -117065.9288 299.5674 40.2964 81.8683 500156.1325 -1.6073 -1.6952
ENERGY: 14000 1640.6644 2452.6836 3181.3948 0.0000 -175581.3627 20213.5951 521.2123 0.0000 30820.6677 -116751.1447 299.6603 -147571.8124 -116703.2942 300.7796 82.0627 83.9609 499937.3279 8.9438 8.7204
ENERGY: 15000 1635.8464 2319.5406 3166.8025 0.0000 -175859.0915 20183.2718 510.3984 0.0000 30675.8125 -117367.4194 298.2519 -148043.2319 -117320.6862 298.4132 -103.7640 -28.0357 499954.5684 -5.4544 -5.7419
TCL: Setting parameter constraintScaling to 1.25
TCL: Running for 5000 steps
ETITLE: TS BOND ANGLE DIHED IMPRP ELECT VDW BOUNDARY MISC KINETIC TOTAL TEMP POTENTIAL TOTAL3 TEMPAVG PRESSURE GPRESSURE VOLUME PRESSAVG GPRESSAVG
ENERGY: 15000 1635.8464 2319.5406 3166.8025 0.0000 -175859.0915 20183.2718 255.1992 0.0000 30673.7516 -117624.6795 298.2318 -148298.4311 -117583.5973 298.2318 -124.4988 -51.1943 499954.5684 -124.4988 -51.1943
ENERGY: 16000 1620.2899 2375.0520 3206.8859 0.0000 -176086.3312 20177.1344 401.4339 0.0000 30725.5599 -117579.9752 298.7355 -148305.5351 -117537.1010 299.3020 12.1542 0.0457 500296.9992 11.7084 11.5002
ENERGY: 17000 1658.7980 2329.1929 3194.5497 0.0000 -176000.4907 20164.2184 416.4669 0.0000 30647.9382 -117589.3267 297.9809 -148237.2648 -117547.4868 298.2291 -124.3139 -76.6915 500355.1288 2.2462 2.0223
ENERGY: 18000 1637.2734 2404.6035 3207.8400 0.0000 -176163.9713 20233.6775 420.3592 0.0000 30661.2795 -117598.9383 298.1106 -148260.2178 -117557.8489 298.9683 -6.4428 21.1051 498021.2239 8.7036 7.8885
ENERGY: 19000 1655.0770 2314.9234 3217.8306 0.0000 -176094.4111 20111.0518 415.0161 0.0000 30718.1781 -117662.3341 298.6638 -148380.5122 -117609.4031 297.7983 -104.4616 -48.7917 498433.4488 3.9710 3.5901
ENERGY: 20000 1615.0486 2417.4686 3206.1562 0.0000 -176016.3545 20279.8004 404.8924 0.0000 30746.2802 -117346.7081 298.9370 -148092.9883 -117291.8094 299.8835 14.7019 17.7794 497209.7523 4.4453 4.8920
TCL: Setting parameter constraintScaling to 0.625
TCL: Running for 5000 steps
ETITLE: TS BOND ANGLE DIHED IMPRP ELECT VDW BOUNDARY MISC KINETIC TOTAL TEMP POTENTIAL TOTAL3 TEMPAVG PRESSURE GPRESSURE VOLUME PRESSAVG GPRESSAVG
ENERGY: 20000 1615.0486 2417.4686 3206.1562 0.0000 -176016.3545 20279.8004 202.4462 0.0000 30744.2066 -117551.2279 298.9168 -148295.4345 -117508.8062 298.9168 -16.4268 -9.7727 497209.7523 -16.4268 -9.7727
ENERGY: 21000 1628.0476 2379.0936 3218.5766 0.0000 -176243.2167 20238.7326 298.7174 0.0000 30625.0229 -117855.0258 297.7581 -148480.0487 -117808.3148 298.8680 48.2734 61.6291 498382.2102 11.5121 10.8434
ENERGY: 22000 1601.4640 2314.4508 3189.0380 0.0000 -176297.6338 20331.3037 330.3306 0.0000 30735.6936 -117795.3531 298.8341 -148531.0468 -117747.2890 297.9955 -37.5053 -19.9493 497442.7425 2.9776 3.0857
ENERGY: 23000 1613.7216 2451.5786 3235.0634 0.0000 -176290.5492 20062.7725 317.4184 0.0000 30910.7965 -117699.1982 300.5365 -148609.9947 -117654.2146 299.0953 -74.7452 -30.6424 497209.1678 0.5604 0.5757
ENERGY: 24000 1591.3194 2363.1413 3197.9633 0.0000 -175866.2033 20243.4405 320.4128 0.0000 30837.0974 -117312.8285 299.8200 -148149.9259 -117269.6278 299.1170 8.6991 29.7972 498660.1679 -1.7492 -1.9929
ENERGY: 25000 1653.7191 2437.7810 3207.3728 0.0000 -176314.4420 20576.1722 318.9585 0.0000 30842.6546 -117277.7839 299.8740 -148120.4384 -117234.1561 300.3168 -121.5597 15.1984 497640.2225 -12.4501 -12.1733
TCL: Setting parameter constraintScaling to 0.3125
TCL: Running for 5000 steps
ETITLE: TS BOND ANGLE DIHED IMPRP ELECT VDW BOUNDARY MISC KINETIC TOTAL TEMP POTENTIAL TOTAL3 TEMPAVG PRESSURE GPRESSURE VOLUME PRESSAVG GPRESSAVG
ENERGY: 25000 1653.7191 2437.7810 3207.3728 0.0000 -176314.4421 20576.1722 159.4793 0.0000 30840.5927 -117439.3251 299.8540 -148279.9177 -117396.7609 299.8540 -75.3906 62.6032 497640.2225 -75.3906 62.6032
ENERGY: 26000 1648.0527 2396.3185 3211.2910 0.0000 -175717.8885 20109.1037 229.1973 0.0000 30793.0936 -117330.8317 299.3922 -148123.9253 -117291.0414 300.0899 -1.7962 -27.4468 499254.5922 8.0045 7.6609
ENERGY: 27000 1640.1527 2438.8513 3208.0287 0.0000 -176324.9412 20215.6609 246.2480 0.0000 30911.6030 -117664.3965 300.5444 -148575.9996 -117609.3879 298.9797 -2.0027 -24.3168 497361.8520 -11.8134 -11.6547
ENERGY: 28000 1667.8852 2429.2867 3218.2744 0.0000 -175773.5593 20108.5161 241.2840 0.0000 30891.8738 -117216.4391 300.3526 -148108.3128 -117174.7815 300.6513 25.4783 96.8943 499171.1602 10.0106 9.9262
ENERGY: 29000 1678.6551 2408.9306 3214.3956 0.0000 -175751.8043 19961.5752 263.1580 0.0000 30809.3059 -117415.7838 299.5498 -148225.0897 -117372.5980 299.4259 -13.7484 -26.8725 499264.2342 -1.5089 -1.4941
ENERGY: 30000 1611.8763 2356.4553 3201.4760 0.0000 -175427.0763 19877.3167 270.4393 0.0000 31003.8910 -117105.6218 301.4417 -148109.5127 -117061.6428 299.9216 -30.5007 -48.7742 499720.8345 6.4541 6.2267
TCL: Setting parameter constraintScaling to 0.15625
TCL: Running for 5000 steps
ETITLE: TS BOND ANGLE DIHED IMPRP ELECT VDW BOUNDARY MISC KINETIC TOTAL TEMP POTENTIAL TOTAL3 TEMPAVG PRESSURE GPRESSURE VOLUME PRESSAVG GPRESSAVG
ENERGY: 30000 1611.8763 2356.4553 3201.4760 0.0000 -175427.0763 19877.3167 135.2197 0.0000 31001.8366 -117242.8957 301.4217 -148244.7324 -117198.7187 301.4217 -77.4366 -98.8977 499720.8345 -77.4366 -98.8977
ENERGY: 31000 1650.4317 2379.2649 3199.4954 0.0000 -175539.2628 19989.9462 191.5202 0.0000 30904.2259 -117224.3784 300.4727 -148128.6044 -117170.3192 300.2205 -103.0517 -69.2158 499334.3973 6.5932 6.4692
ENERGY: 32000 1674.4304 2395.0631 3222.0234 0.0000 -175899.1628 20104.2596 203.9067 0.0000 30965.3921 -117334.0875 301.0674 -148299.4796 -117285.4687 300.0913 42.8273 -53.4621 497318.8273 -10.4048 -11.2622
ENERGY: 33000 1616.9058 2412.0215 3199.0607 0.0000 -176005.8287 20032.2627 192.9799 0.0000 30730.0807 -117822.5174 298.7795 -148552.5981 -117777.4714 299.5396 19.3782 11.1326 495458.9642 -12.9949 -13.3007
ENERGY: 34000 1658.0232 2442.4513 3182.4927 0.0000 -175776.5002 19977.3734 207.0736 0.0000 30898.0137 -117411.0722 300.4123 -148309.0859 -117371.8744 299.4997 6.5764 13.0515 498072.0815 16.4085 16.0819
ENERGY: 35000 1649.7637 2390.9289 3198.7228 0.0000 -175828.9838 19987.4761 205.0138 0.0000 30893.7313 -117503.3472 300.3706 -148397.0785 -117446.8350 299.6130 45.2606 151.8486 495815.0680 -9.7258 -9.0635
TCL: Setting parameter constraintScaling to 0.078125
TCL: Running for 5000 steps
ETITLE: TS BOND ANGLE DIHED IMPRP ELECT VDW BOUNDARY MISC KINETIC TOTAL TEMP POTENTIAL TOTAL3 TEMPAVG PRESSURE GPRESSURE VOLUME PRESSAVG GPRESSAVG
ENERGY: 35000 1649.7637 2390.9289 3198.7228 0.0000 -175828.9838 19987.4761 102.5069 0.0000 30891.6819 -117607.9035 300.3507 -148499.5854 -117563.5388 300.3507 30.8100 141.5142 495815.0680 30.8100 141.5142
ENERGY: 36000 1665.1151 2368.5422 3225.0020 0.0000 -175999.2752 20125.4735 147.0975 0.0000 30707.2114 -117760.8335 298.5571 -148468.0449 -117712.6520 299.5779 -29.9818 -15.1781 496514.0116 -2.7506 -3.0767
ENERGY: 37000 1619.5934 2398.8088 3234.6199 0.0000 -176109.4797 20177.5173 148.5401 0.0000 30765.6674 -117764.7329 299.1255 -148530.4003 -117717.1964 298.6290 -56.6866 25.0840 496115.6347 -4.8640 -4.6357
ENERGY: 38000 1697.8863 2387.2350 3186.7126 0.0000 -175993.1067 19930.5402 165.5537 0.0000 30802.5173 -117822.6615 299.4838 -148625.1788 -117777.7415 298.6827 -133.0155 -34.0187 495462.0635 0.2382 0.7666
ENERGY: 39000 1618.0554 2375.2521 3225.3051 0.0000 -175808.4490 20096.1456 166.8618 0.0000 30703.7708 -117623.0582 298.5237 -148326.8290 -117571.4627 299.3590 -41.7354 -18.2422 496929.5528 10.3559 11.0088
ENERGY: 40000 1620.4993 2392.8724 3250.3980 0.0000 -175771.5987 19971.7350 152.0380 0.0000 30954.6031 -117429.4529 300.9625 -148384.0559 -117390.5167 299.3597 40.7760 68.1753 497689.3293 1.7346 1.6038
TCL: Setting parameter constraintScaling to 0.0390625
TCL: Running for 5000 steps
ETITLE: TS BOND ANGLE DIHED IMPRP ELECT VDW BOUNDARY MISC KINETIC TOTAL TEMP POTENTIAL TOTAL3 TEMPAVG PRESSURE GPRESSURE VOLUME PRESSAVG GPRESSAVG
ENERGY: 40000 1620.4993 2392.8724 3250.3980 0.0000 -175771.5987 19971.7350 76.0190 0.0000 30952.5563 -117507.5187 300.9426 -148460.0750 -117463.3975 300.9426 20.0286 40.7478 497689.3293 20.0286 40.7478
ENERGY: 41000 1598.3567 2385.2647 3224.1964 0.0000 -175824.2032 20059.2685 109.3259 0.0000 30904.4303 -117543.3606 300.4747 -148447.7909 -117498.9804 299.9173 32.0444 46.6262 497621.7815 1.2869 1.3189
ENERGY: 42000 1657.3703 2396.5993 3205.3849 0.0000 -175883.8144 20148.8487 111.7246 0.0000 30644.5217 -117719.3650 297.9476 -148363.8866 -117689.3948 299.6009 0.0050 77.3149 495983.3339 -4.6748 -4.7937
ENERGY: 43000 1608.3609 2414.2819 3259.7182 0.0000 -175899.2486 20136.1931 122.2642 0.0000 30848.0505 -117510.3799 299.9265 -148358.4304 -117471.0899 299.8797 107.7465 117.3280 495964.7941 -0.3907 0.2585
ENERGY: 44000 1627.2440 2373.3918 3198.6218 0.0000 -175661.8010 19761.1302 122.5012 0.0000 30915.3714 -117663.5406 300.5810 -148578.9120 -117625.8570 299.0026 -110.5972 -55.8076 496912.4659 -2.0867 -1.9759
ENERGY: 45000 1647.7985 2436.3026 3216.7686 0.0000 -175602.3957 19871.1497 119.5765 0.0000 30947.1508 -117363.6491 300.8900 -148310.7998 -117319.0220 299.9041 -24.8769 -50.5002 496693.3318 -2.2131 -2.4184
TCL: Setting parameter constraintScaling to 0.01953125
TCL: Running for 5000 steps
ETITLE: TS BOND ANGLE DIHED IMPRP ELECT VDW BOUNDARY MISC KINETIC TOTAL TEMP POTENTIAL TOTAL3 TEMPAVG PRESSURE GPRESSURE VOLUME PRESSAVG GPRESSAVG
ENERGY: 45000 1647.7985 2436.3026 3216.7686 0.0000 -175602.3957 19871.1497 59.7883 0.0000 30945.1173 -117425.4708 300.8702 -148370.5881 -117380.3255 300.8702 -42.1458 -67.1611 496693.3318 -42.1458 -67.1611
ENERGY: 46000 1589.6882 2367.7184 3213.6458 0.0000 -175340.7491 19725.8153 82.7430 0.0000 30930.9618 -117430.1766 300.7326 -148361.1384 -117389.5452 300.0991 -70.1630 -0.2221 495401.1891 -13.2045 -12.8189
ENERGY: 47000 1640.6120 2399.3602 3182.7854 0.0000 -176210.3549 20285.3412 83.0728 0.0000 30689.3081 -117929.8754 298.3831 -148619.1835 -117889.3102 298.8568 -41.6362 5.8256 496620.8792 6.9064 6.1957
ENERGY: 48000 1671.9222 2303.5013 3180.6351 0.0000 -176241.6718 20164.3885 90.5855 0.0000 30945.1216 -117885.5175 300.8703 -148830.6391 -117834.3563 300.1858 -4.6819 2.3405 496570.3412 1.6396 2.1312
ENERGY: 49000 1599.4611 2433.3829 3210.3441 0.0000 -175964.0800 19860.6347 95.9830 0.0000 30843.5105 -117920.7637 299.8823 -148764.2742 -117857.3121 299.8184 -116.8885 -42.1005 495689.4928 -9.3533 -9.2052
ENERGY: 50000 1601.1317 2381.8838 3179.3048 0.0000 -176045.3877 20131.7221 102.1444 0.0000 30744.1068 -117905.0940 298.9159 -148649.2008 -117860.2179 299.4320 166.4620 192.6009 495030.0883 3.3824 2.5142
TCL: Setting parameter constraintScaling to 0
TCL: Running for 5000 steps
ETITLE: TS BOND ANGLE DIHED IMPRP ELECT VDW BOUNDARY MISC KINETIC TOTAL TEMP POTENTIAL TOTAL3 TEMPAVG PRESSURE GPRESSURE VOLUME PRESSAVG GPRESSAVG
ENERGY: 50000 1601.1317 2381.8838 3179.3048 0.0000 -176045.3877 20131.7221 0.0000 0.0000 30742.0948 -118009.2504 298.8963 -148751.3452 -117965.3109 298.8963 156.8664 185.0567 495030.0883 156.8664 185.0567
ENERGY: 51000 1628.3989 2432.1880 3234.3930 0.0000 -175372.8805 19711.5465 0.0000 0.0000 30771.3643 -117594.9898 299.1809 -148366.3541 -117544.9287 300.7970 2.5100 37.7324 495125.0473 6.0984 5.7184
ENERGY: 52000 1645.0793 2346.6313 3200.8230 0.0000 -175752.6363 19903.3179 0.0000 0.0000 30780.6457 -117876.1392 299.2711 -148656.7849 -117833.5779 300.0758 0.8414 14.5702 496046.1758 0.8409 0.8365
ENERGY: 53000 1641.8922 2472.8777 3241.7530 0.0000 -176207.6624 20070.7658 0.0000 0.0000 30744.7529 -118035.6207 298.9222 -148780.3736 -117999.8586 300.3376 -91.1209 -69.0083 496259.9301 3.9912 4.2882
ENERGY: 54000 1603.8963 2398.1298 3208.7352 0.0000 -175943.4729 20038.8586 0.0000 0.0000 30896.2407 -117797.6124 300.3950 -148693.8531 -117751.0070 299.5643 -126.8232 3.3897 496023.6879 -6.4119 -6.2160
ENERGY: 55000 1602.0559 2382.6074 3198.5635 0.0000 -175745.9768 19851.0530 0.0000 0.0000 30956.3678 -117755.3293 300.9796 -148711.6971 -117710.3344 299.8406 -21.8412 -4.2618 495081.2095 -15.6548 -15.2811
