Info: SIMULATION PARAMETERS:
Info: TIMESTEP               2
Info: NUMBER OF STEPS        0
Info: STEPS PER CYCLE        10
Info: PERIODIC CELL BASIS 1  72.449 0 0
Info: PERIODIC CELL BASIS 2  0 93.247 0
Info: PERIODIC CELL BASIS 3  0 0 79.185
Info: PERIODIC CELL CENTER   -0.248 -0.156 -0.047
Info: WRAPPING WATERS AROUND PERIODIC BOUNDARIES ON OUTPUT.
Info: WRAPPING ALL CLUSTERS AROUND PERIODIC BOUNDARIES ON OUTPUT.
Info: FIRST LDB TIMESTEP     50
Info: LAST LDB TIMESTEP     -1
Info: HOM BACKGROUND SCALING 1
Info: PME BACKGROUND SCALING 1
Info: MIN ATOMS PER PATCH    40
Info: INITIAL TEMPERATURE    0
Info: CENTER OF MASS MOVING INITIALLY? NO
Info: DIELECTRIC             1
Info: EXCLUDE                SCALED ONE-FOUR
Info: 1-4 ELECTROSTATICS SCALED BY 0.833333
Info: MODIFIED 1-4 VDW PARAMETERS WILL BE USED
Info: NO DCD TRAJECTORY OUTPUT
Info: NO EXTENDED SYSTEM TRAJECTORY OUTPUT
Info: NO VELOCITY DCD OUTPUT
Info: NO FORCE DCD OUTPUT
Info: OUTPUT FILENAME        ../replicas/rep76/equilibration/eq0
Info: NO RESTART FILE
Info: SWITCHING ACTIVE
Info: SWITCHING ON           10
Info: SWITCHING OFF          12
Info: PAIRLIST DISTANCE      13.5
Info: PAIRLIST SHRINK RATE   0.01
Info: PAIRLIST GROW RATE     0.01
Info: PAIRLIST TRIGGER       0.3
Info: PAIRLISTS PER CYCLE    2
Info: PAIRLISTS ENABLED
Info: MARGIN                 0
Info: HYDROGEN GROUP CUTOFF  2.5
Info: PATCH DIMENSION        16
Info: ENERGY OUTPUT STEPS    500
Info: CROSSTERM ENERGY INCLUDED IN DIHEDRAL
Info: TIMING OUTPUT STEPS    5000
Info: PRESSURE OUTPUT STEPS  500
Info: HARMONIC CONSTRAINTS ACTIVE
Info: HARMONIC CONS EXP      2
Info: HARMONIC CONS SCALING  10
Info: CONJUGATE GRADIENT MINIMIZATION ACTIVE
Info: LINE MINIMIZATION GOAL = 0.001
Info: BABY STEP SIZE = 0.01
Info: TINY STEP SIZE = 1e-06
Info: PARTICLE MESH EWALD (PME) ACTIVE
Info: PME TOLERANCE               1e-06
Info: PME EWALD COEFFICIENT       0.257952
Info: PME INTERPOLATION ORDER     4
Info: PME GRID DIMENSIONS         80 96 80
Info: PME MAXIMUM GRID SPACING    1
Info: FULL ELECTROSTATIC EVALUATION FREQUENCY      2
Info: USING VERLET I (r-RESPA) MTS SCHEME.
Info: C1 SPLITTING OF LONG RANGE ELECTROSTATICS
Info: PLACING ATOMS IN PATCHES BY HYDROGEN GROUPS
Info: RIGID BONDS TO HYDROGEN : ALL
Info:         ERROR TOLERANCE : 1e-05
Info:          MAX ITERATIONS : 100
Info: RIGID WATER USING SETTLE ALGORITHM
Info: RANDOM NUMBER SEED     1503692021
Info: USE HYDROGEN BONDS?    NO
Info: Using AMBER format force field!
Info: AMBER PARM FILE        ../build/complex.top
Info: COORDINATE PDB         ../build/complex.pdb
Info: Exclusions in PARM file will be ignored!
Info: SCNB (VDW SCALING)     2
Info: USING ARITHMETIC MEAN TO COMBINE L-J SIGMA PARAMETERS
Info: SUMMARY OF PARAMETERS:
Info: 71 BONDS
Info: 145 ANGLES
Info: 76 DIHEDRAL
Info: 0 IMPROPER
Info: 0 CROSSTERM
Info: 0 VDW
Info: 190 VDW_PAIRS
Info: 0 NBTHOLE_PAIRS
Info: STRUCTURE SUMMARY:
Info: 49394 ATOMS
Info: 49448 BONDS
Info: 8698 ANGLES
Info: 18780 DIHEDRALS
Info: 0 IMPROPERS
Info: 0 CROSSTERMS
Info: 0 EXCLUSIONS
Info: 2336 CONSTRAINTS
Info: 47058 RIGID BONDS
Info: 101124 DEGREES OF FREEDOM
Info: 17225 HYDROGEN GROUPS
Info: 4 ATOMS IN LARGEST HYDROGEN GROUP
Info: 17225 MIGRATION GROUPS
Info: 4 ATOMS IN LARGEST MIGRATION GROUP
Info: TOTAL MASS = 301478 amu
Info: TOTAL CHARGE = 1.00115e-05 e
Info: MASS DENSITY = 0.935846 g/cm^3
Info: ATOM DENSITY = 0.0923345 atoms/A^3
Info: ADDED 70656 IMPLICIT EXCLUSIONS
Info: NONBONDED TABLE R-SQUARED SPACING: 0.0625
Info: NONBONDED TABLE SIZE: 769 POINTS
Info: REMOVING COM VELOCITY 0 0 0
TCL: Minimizing for 100 steps
ETITLE: TS BOND ANGLE DIHED IMPRP ELECT VDW BOUNDARY MISC KINETIC TOTAL TEMP POTENTIAL TOTAL3 TEMPAVG PRESSURE GPRESSURE VOLUME PRESSAVG GPRESSAVG
ENERGY: 0 155.4176 1012.2698 2855.7272 0.0000 -154496.7911 207729.2052 0.0468 0.0000 0.0000 57255.8755 0.0000 57255.8755 57255.8755 0.0000 116350.2532 86546.1670 534946.2959 116350.2532 86546.1670
ENERGY: 20 304.7552 935.7912 2893.4663 0.0000 -158672.9406 17936.6594 143.9454 0.0000 0.0000 -136458.3231 0.0000 -136458.3231 -136458.3231 0.0000 16523.9387 -239.4559 534946.2959 16523.9387 -239.4559
ENERGY: 40 198.7458 799.5729 2896.9273 0.0000 -162811.4533 16417.9537 221.3030 0.0000 0.0000 -142276.9506 0.0000 -142276.9506 -142276.9506 0.0000 15011.2702 -2135.4699 534946.2959 15011.2702 -2135.4699
ENERGY: 60 130.5281 715.3439 2898.2166 0.0000 -167496.1592 15446.7536 315.2797 0.0000 0.0000 -147990.0373 0.0000 -147990.0373 -147990.0373 0.0000 13793.8832 -3799.3993 534946.2959 13793.8832 -3799.3993
ENERGY: 80 431.2721 765.6305 2904.3787 0.0000 -169937.5348 15121.1518 372.0123 0.0000 0.0000 -150343.0893 0.0000 -150343.0893 -150343.0893 0.0000 13270.3292 -4577.2468 534946.2959 13270.3292 -4577.2468
ENERGY: 100 129.7126 708.0643 2904.2781 0.0000 -171050.0672 15018.6536 384.2001 0.0000 0.0000 -151905.1584 0.0000 -151905.1584 -151905.1584 0.0000 13092.9127 -4843.6313 534946.2959 13092.9127 -4843.6313
TCL: Setting parameter constraintScaling to 5.0
TCL: Minimizing for 100 steps
ETITLE: TS BOND ANGLE DIHED IMPRP ELECT VDW BOUNDARY MISC KINETIC TOTAL TEMP POTENTIAL TOTAL3 TEMPAVG PRESSURE GPRESSURE VOLUME PRESSAVG GPRESSAVG
ENERGY: 100 129.7126 708.0643 2904.2781 0.0000 -171050.0672 15018.6536 192.1001 0.0000 0.0000 -152097.2585 0.0000 -152097.2585 -152097.2585 0.0000 13703.5080 -22944.4548 534946.2959 13703.5080 -22944.4548
ENERGY: 120 118.6818 680.2875 2909.9066 0.0000 -172396.3118 14830.1206 259.9548 0.0000 0.0000 -153597.3605 0.0000 -153597.3605 -153597.3605 0.0000 13320.9478 -4756.3066 534946.2959 13320.9478 -4756.3066
ENERGY: 140 109.1479 671.1469 2912.0863 0.0000 -174830.2446 14716.1440 337.7303 0.0000 0.0000 -156083.9893 0.0000 -156083.9893 -156083.9893 0.0000 12908.9616 -5423.1419 534946.2959 12908.9616 -5423.1419
ENERGY: 160 125.8488 667.1505 2914.1925 0.0000 -175967.0565 14735.1348 362.9189 0.0000 0.0000 -157161.8112 0.0000 -157161.8112 -157161.8112 0.0000 12806.8946 -5643.6775 534946.2959 12806.8946 -5643.6775
ENERGY: 180 303.4925 659.6822 2917.2967 0.0000 -177408.7320 14815.0161 395.3829 0.0000 0.0000 -158317.8616 0.0000 -158317.8616 -158317.8616 0.0000 12699.3135 -5900.7053 534946.2959 12699.3135 -5900.7053
ENERGY: 200 109.2120 628.4758 2923.3586 0.0000 -179543.9836 15071.1783 441.8849 0.0000 0.0000 -160369.8740 0.0000 -160369.8740 -160369.8740 0.0000 12659.9897 -6149.4105 534946.2959 12659.9897 -6149.4105
TCL: Setting parameter constraintScaling to 2.5
TCL: Minimizing for 100 steps
ETITLE: TS BOND ANGLE DIHED IMPRP ELECT VDW BOUNDARY MISC KINETIC TOTAL TEMP POTENTIAL TOTAL3 TEMPAVG PRESSURE GPRESSURE VOLUME PRESSAVG GPRESSAVG
ENERGY: 200 109.2120 628.4758 2923.3586 0.0000 -179543.9836 15071.1783 220.9425 0.0000 0.0000 -160590.8165 0.0000 -160590.8165 -160590.8165 0.0000 13208.4158 -25268.5676 534946.2959 13208.4158 -25268.5676
ENERGY: 220 169.2816 639.7888 2924.9626 0.0000 -180453.9657 15113.9484 291.3270 0.0000 0.0000 -161314.6574 0.0000 -161314.6574 -161314.6574 0.0000 13002.2581 -5912.2326 534946.2959 13002.2581 -5912.2326
ENERGY: 240 251.8066 643.1653 2921.4015 0.0000 -181894.0096 15358.9119 339.5309 0.0000 0.0000 -162379.1934 0.0000 -162379.1934 -162379.1934 0.0000 12964.1250 -6104.9729 534946.2959 12964.1250 -6104.9729
ENERGY: 260 174.2700 639.0278 2923.9338 0.0000 -184182.0579 15908.1023 437.5745 0.0000 0.0000 -164099.1496 0.0000 -164099.1496 -164099.1496 0.0000 13009.0799 -6304.0511 534946.2959 13009.0799 -6304.0511
ENERGY: 280 146.3123 648.6020 2918.2250 0.0000 -184712.4689 16068.8012 427.6916 0.0000 0.0000 -164502.8369 0.0000 -164502.8369 -164502.8369 0.0000 13128.0165 -6258.3613 534946.2959 13128.0165 -6258.3613
ENERGY: 300 230.1585 688.9355 2927.2855 0.0000 -186397.4849 16616.6414 426.0698 0.0000 0.0000 -165508.3942 0.0000 -165508.3942 -165508.3942 0.0000 13376.4196 -6201.0671 534946.2959 13376.4196 -6201.0671
TCL: Setting parameter constraintScaling to 1.25
TCL: Minimizing for 100 steps
ETITLE: TS BOND ANGLE DIHED IMPRP ELECT VDW BOUNDARY MISC KINETIC TOTAL TEMP POTENTIAL TOTAL3 TEMPAVG PRESSURE GPRESSURE VOLUME PRESSAVG GPRESSAVG
ENERGY: 300 230.1585 688.9355 2927.2855 0.0000 -186397.4849 16616.6414 213.0349 0.0000 0.0000 -165721.4291 0.0000 -165721.4291 -165721.4291 0.0000 13787.2662 -26282.3966 534946.2959 13787.2662 -26282.3966
ENERGY: 320 180.8095 668.2640 2910.7549 0.0000 -186924.4818 16729.3819 253.0391 0.0000 0.0000 -166182.2325 0.0000 -166182.2325 -166182.2325 0.0000 13767.3040 -5863.8949 534946.2959 13767.3040 -5863.8949
ENERGY: 340 160.7467 656.6490 2916.0707 0.0000 -187981.1282 17008.0587 318.1209 0.0000 0.0000 -166921.4821 0.0000 -166921.4821 -166921.4821 0.0000 13737.0397 -5995.6794 534946.2959 13737.0397 -5995.6794
ENERGY: 360 129.6305 639.4430 2905.7253 0.0000 -188734.4686 17257.4324 348.2190 0.0000 0.0000 -167454.0185 0.0000 -167454.0185 -167454.0185 0.0000 13820.5206 -6019.6324 534946.2959 13820.5206 -6019.6324
ENERGY: 380 218.4573 670.4997 2900.1587 0.0000 -189543.6443 17559.2039 350.3126 0.0000 0.0000 -167845.0122 0.0000 -167845.0122 -167845.0122 0.0000 13989.8353 -5960.9191 534946.2959 13989.8353 -5960.9191
ENERGY: 400 174.8896 665.5994 2906.9651 0.0000 -190907.0575 18068.7447 362.9175 0.0000 0.0000 -168727.9412 0.0000 -168727.9412 -168727.9412 0.0000 14213.8475 -5868.3130 534946.2959 14213.8475 -5868.3130
TCL: Setting parameter constraintScaling to 0.625
TCL: Minimizing for 100 steps
ETITLE: TS BOND ANGLE DIHED IMPRP ELECT VDW BOUNDARY MISC KINETIC TOTAL TEMP POTENTIAL TOTAL3 TEMPAVG PRESSURE GPRESSURE VOLUME PRESSAVG GPRESSAVG
ENERGY: 400 174.8896 665.5994 2906.9651 0.0000 -190907.0575 18068.7447 181.4587 0.0000 0.0000 -168909.4000 0.0000 -168909.4000 -168909.4000 0.0000 14498.4045 -26639.8806 534946.2959 14498.4045 -26639.8806
ENERGY: 420 157.2425 651.8832 2894.4347 0.0000 -191387.6652 18201.9167 216.9841 0.0000 0.0000 -169265.2040 0.0000 -169265.2040 -169265.2040 0.0000 14471.8893 -5665.2557 534946.2959 14471.8893 -5665.2557
ENERGY: 440 303.8661 708.0175 2895.1934 0.0000 -192608.4470 18608.4257 287.1940 0.0000 0.0000 -169805.7503 0.0000 -169805.7503 -169805.7503 0.0000 14475.5775 -5777.2003 534946.2959 14475.5775 -5777.2003
ENERGY: 460 157.1650 649.5846 2885.3038 0.0000 -193088.8620 18796.2929 286.7053 0.0000 0.0000 -170313.8104 0.0000 -170313.8104 -170313.8104 0.0000 14624.4164 -5695.0487 534946.2959 14624.4164 -5695.0487
ENERGY: 480 157.4221 661.0447 2892.0731 0.0000 -193674.0671 19048.4485 272.9055 0.0000 0.0000 -170642.1732 0.0000 -170642.1732 -170642.1732 0.0000 14829.9381 -5568.4375 534946.2959 14829.9381 -5568.4375
ENERGY: 500 168.8734 645.8336 2892.0669 0.0000 -195041.2441 19630.8175 292.5618 0.0000 0.0000 -171411.0909 0.0000 -171411.0909 -171411.0909 0.0000 15114.3806 -5429.9844 534946.2959 15114.3806 -5429.9844
TCL: Setting parameter constraintScaling to 0.3125
TCL: Minimizing for 100 steps
ETITLE: TS BOND ANGLE DIHED IMPRP ELECT VDW BOUNDARY MISC KINETIC TOTAL TEMP POTENTIAL TOTAL3 TEMPAVG PRESSURE GPRESSURE VOLUME PRESSAVG GPRESSAVG
ENERGY: 500 168.8734 645.8336 2892.0669 0.0000 -195041.2441 19630.8175 146.2809 0.0000 0.0000 -171557.3718 0.0000 -171557.3718 -171557.3718 0.0000 15308.0897 -26798.1849 534946.2959 15308.0897 -26798.1849
ENERGY: 520 154.2237 642.2633 2873.8265 0.0000 -195375.9566 19720.0790 163.8173 0.0000 0.0000 -171821.7468 0.0000 -171821.7468 -171821.7468 0.0000 15262.1149 -5301.6328 534946.2959 15262.1149 -5301.6328
ENERGY: 540 185.1606 695.9638 2885.9534 0.0000 -196063.0946 19922.7784 203.5995 0.0000 0.0000 -172169.6390 0.0000 -172169.6390 -172169.6390 0.0000 15228.2425 -5412.5421 534946.2959 15228.2425 -5412.5421
ENERGY: 560 220.3507 721.2407 2873.3057 0.0000 -196725.0889 20177.7001 209.5944 0.0000 0.0000 -172522.8973 0.0000 -172522.8973 -172522.8973 0.0000 15413.8277 -5345.7702 534946.2959 15413.8277 -5345.7702
ENERGY: 580 159.9214 658.6541 2875.5752 0.0000 -196912.3240 20272.8728 200.7098 0.0000 0.0000 -172744.5906 0.0000 -172744.5906 -172744.5906 0.0000 15454.2300 -5280.0863 534946.2959 15454.2300 -5280.0863
ENERGY: 600 155.5742 669.5046 2889.4596 0.0000 -197809.3984 20666.1234 203.6096 0.0000 0.0000 -173225.1270 0.0000 -173225.1270 -173225.1270 0.0000 15760.1394 -5105.6606 534946.2959 15760.1394 -5105.6606
TCL: Setting parameter constraintScaling to 0.15625
TCL: Minimizing for 100 steps
ETITLE: TS BOND ANGLE DIHED IMPRP ELECT VDW BOUNDARY MISC KINETIC TOTAL TEMP POTENTIAL TOTAL3 TEMPAVG PRESSURE GPRESSURE VOLUME PRESSAVG GPRESSAVG
ENERGY: 600 155.5742 669.5046 2889.4596 0.0000 -197809.3984 20666.1234 101.8048 0.0000 0.0000 -173326.9317 0.0000 -173326.9317 -173326.9317 0.0000 15879.3240 -26887.7815 534946.2959 15879.3240 -26887.7815
ENERGY: 620 157.3297 649.7244 2859.5215 0.0000 -198109.3158 20712.7411 114.4545 0.0000 0.0000 -173615.5444 0.0000 -173615.5444 -173615.5444 0.0000 15803.6537 -5087.5397 534946.2959 15803.6537 -5087.5397
ENERGY: 640 188.5830 691.6636 2867.8573 0.0000 -198688.5452 20909.3065 136.7918 0.0000 0.0000 -173894.3429 0.0000 -173894.3429 -173894.3429 0.0000 15729.7504 -5208.7611 534946.2959 15729.7504 -5208.7611
ENERGY: 660 182.9980 713.5160 2862.6432 0.0000 -199651.8273 21275.7553 155.5233 0.0000 0.0000 -174461.3916 0.0000 -174461.3916 -174461.3916 0.0000 15946.0457 -5119.3128 534946.2959 15946.0457 -5119.3128
ENERGY: 680 178.1553 670.9482 2851.4315 0.0000 -199812.5162 21336.3390 146.6215 0.0000 0.0000 -174629.0207 0.0000 -174629.0207 -174629.0207 0.0000 15977.4298 -5095.0603 534946.2959 15977.4298 -5095.0603
ENERGY: 700 160.6765 655.3780 2855.5543 0.0000 -200152.3776 21504.9794 141.0291 0.0000 0.0000 -174834.7603 0.0000 -174834.7603 -174834.7603 0.0000 16202.5951 -4926.8369 534946.2959 16202.5951 -4926.8369
TCL: Setting parameter constraintScaling to 0.078125
TCL: Minimizing for 100 steps
ETITLE: TS BOND ANGLE DIHED IMPRP ELECT VDW BOUNDARY MISC KINETIC TOTAL TEMP POTENTIAL TOTAL3 TEMPAVG PRESSURE GPRESSURE VOLUME PRESSAVG GPRESSAVG
ENERGY: 700 160.6765 655.3780 2855.5543 0.0000 -200152.3776 21504.9794 70.5145 0.0000 0.0000 -174905.2748 0.0000 -174905.2748 -174905.2748 0.0000 16274.3996 -27057.1507 534946.2959 16274.3996 -27057.1507
ENERGY: 720 160.0141 648.5469 2842.5426 0.0000 -200422.6234 21549.7606 76.5909 0.0000 0.0000 -175145.1683 0.0000 -175145.1683 -175145.1683 0.0000 16209.4069 -4953.4735 534946.2959 16209.4069 -4953.4735
ENERGY: 740 212.2039 684.1279 2842.9049 0.0000 -201027.1948 21792.8780 86.9908 0.0000 0.0000 -175408.0893 0.0000 -175408.0893 -175408.0893 0.0000 16236.8496 -4987.3418 534946.2959 16236.8496 -4987.3418
ENERGY: 760 178.5595 677.0192 2841.2191 0.0000 -201160.3312 21816.3513 84.9101 0.0000 0.0000 -175562.2720 0.0000 -175562.2720 -175562.2720 0.0000 16302.6100 -4944.4269 534946.2959 16302.6100 -4944.4269
ENERGY: 780 163.9580 659.4369 2838.2197 0.0000 -201629.6924 22034.0751 85.8189 0.0000 0.0000 -175848.1838 0.0000 -175848.1838 -175848.1838 0.0000 16465.0636 -4839.6728 534946.2959 16465.0636 -4839.6728
ENERGY: 800 153.7884 648.4883 2839.0505 0.0000 -202433.2721 22371.1088 92.8129 0.0000 0.0000 -176328.0233 0.0000 -176328.0233 -176328.0233 0.0000 16671.5702 -4733.7843 534946.2959 16671.5702 -4733.7843
TCL: Setting parameter constraintScaling to 0.0390625
TCL: Minimizing for 100 steps
ETITLE: TS BOND ANGLE DIHED IMPRP ELECT VDW BOUNDARY MISC KINETIC TOTAL TEMP POTENTIAL TOTAL3 TEMPAVG PRESSURE GPRESSURE VOLUME PRESSAVG GPRESSAVG
ENERGY: 800 153.7884 648.4883 2839.0505 0.0000 -202433.2721 22371.1088 46.4064 0.0000 0.0000 -176374.4297 0.0000 -176374.4297 -176374.4297 0.0000 16713.5188 -27160.1416 534946.2959 16713.5188 -27160.1416
ENERGY: 820 171.2971 667.7371 2827.9475 0.0000 -202656.3055 22430.2527 49.2000 0.0000 0.0000 -176509.8711 0.0000 -176509.8711 -176509.8711 0.0000 16683.8644 -4746.4732 534946.2959 16683.8644 -4746.4732
ENERGY: 840 188.3256 677.5409 2831.8421 0.0000 -203160.4147 22643.7847 53.7409 0.0000 0.0000 -176765.1805 0.0000 -176765.1805 -176765.1805 0.0000 16705.5247 -4760.1934 534946.2959 16705.5247 -4760.1934
ENERGY: 860 196.7391 677.9177 2822.0949 0.0000 -203311.2839 22691.3203 52.7620 0.0000 0.0000 -176870.4499 0.0000 -176870.4499 -176870.4499 0.0000 16781.5917 -4718.8023 534946.2959 16781.5917 -4718.8023
ENERGY: 880 176.8409 689.5755 2847.4707 0.0000 -203768.6486 22934.3845 52.5851 0.0000 0.0000 -177067.7919 0.0000 -177067.7919 -177067.7919 0.0000 17064.1420 -4521.6031 534946.2959 17064.1420 -4521.6031
ENERGY: 900 179.4262 650.2364 2828.9743 0.0000 -203910.3835 22981.5785 54.0398 0.0000 0.0000 -177216.1284 0.0000 -177216.1284 -177216.1284 0.0000 16944.9782 -4609.2392 534946.2959 16944.9782 -4609.2392
TCL: Setting parameter constraintScaling to 0.01953125
TCL: Minimizing for 100 steps
ETITLE: TS BOND ANGLE DIHED IMPRP ELECT VDW BOUNDARY MISC KINETIC TOTAL TEMP POTENTIAL TOTAL3 TEMPAVG PRESSURE GPRESSURE VOLUME PRESSAVG GPRESSAVG
ENERGY: 900 179.4262 650.2364 2828.9743 0.0000 -203910.3835 22981.5785 27.0199 0.0000 0.0000 -177243.1483 0.0000 -177243.1483 -177243.1483 0.0000 16968.3195 -27261.2655 534946.2959 16968.3195 -27261.2655
ENERGY: 920 169.7807 649.8918 2818.5872 0.0000 -204112.6945 23032.0377 28.4063 0.0000 0.0000 -177413.9909 0.0000 -177413.9909 -177413.9909 0.0000 16977.9876 -4613.1841 534946.2959 16977.9876 -4613.1841
ENERGY: 940 167.4824 677.2289 2817.6715 0.0000 -204437.6893 23175.7734 30.1179 0.0000 0.0000 -177569.4153 0.0000 -177569.4153 -177569.4153 0.0000 17060.3544 -4575.6690 534946.2959 17060.3544 -4575.6690
ENERGY: 960 193.6564 694.2272 2828.4460 0.0000 -204687.8534 23285.5432 29.6592 0.0000 0.0000 -177656.3214 0.0000 -177656.3214 -177656.3214 0.0000 17231.1186 -4465.3584 534946.2959 17231.1186 -4465.3584
ENERGY: 980 461.0038 779.9462 2843.4776 0.0000 -205346.5141 23636.0021 31.4215 0.0000 0.0000 -177594.6629 0.0000 -177594.6629 -177594.6629 0.0000 17339.7741 -4419.7625 534946.2959 17339.7741 -4419.7625
ENERGY: 1000 155.8370 655.2705 2823.6927 0.0000 -205432.3338 23643.2528 31.7529 0.0000 0.0000 -178122.5279 0.0000 -178122.5279 -178122.5279 0.0000 17366.0422 -4384.6460 534946.2959 17366.0422 -4384.6460
TCL: Setting parameter constraintScaling to 0
TCL: Minimizing for 5000 steps
ETITLE: TS BOND ANGLE DIHED IMPRP ELECT VDW BOUNDARY MISC KINETIC TOTAL TEMP POTENTIAL TOTAL3 TEMPAVG PRESSURE GPRESSURE VOLUME PRESSAVG GPRESSAVG
ENERGY: 1000 155.8370 655.2705 2823.6927 0.0000 -205432.3338 23643.2528 0.0000 0.0000 0.0000 -178154.2808 0.0000 -178154.2808 -178154.2808 0.0000 17391.9629 -27197.7758 534946.2959 17391.9629 -27197.7758
ENERGY: 2000 187.0483 669.5451 2799.0042 0.0000 -215019.3685 27864.7505 0.0000 0.0000 0.0000 -183499.0204 0.0000 -183499.0204 -183499.0204 0.0000 19557.2673 -3271.3486 534946.2959 19557.2673 -3271.3486
ENERGY: 3000 167.1681 666.9259 2796.5682 0.0000 -217503.7027 28907.0806 0.0000 0.0000 0.0000 -184965.9600 0.0000 -184965.9600 -184965.9600 0.0000 20135.7304 -2954.9916 534946.2959 20135.7304 -2954.9916
ENERGY: 4000 165.5584 666.7502 2791.3640 0.0000 -218947.6848 29526.5330 0.0000 0.0000 0.0000 -185797.4792 0.0000 -185797.4792 -185797.4792 0.0000 20460.5133 -2788.1191 534946.2959 20460.5133 -2788.1191
ENERGY: 5000 173.7634 665.6852 2785.1818 0.0000 -219644.0503 29786.9241 0.0000 0.0000 0.0000 -186232.4959 0.0000 -186232.4959 -186232.4959 0.0000 20582.0650 -2734.3135 534946.2959 20582.0650 -2734.3135
ENERGY: 6000 167.0891 665.0816 2781.5363 0.0000 -220027.4464 29936.3081 0.0000 0.0000 0.0000 -186477.4313 0.0000 -186477.4313 -186477.4313 0.0000 20658.8969 -2695.2197 534946.2959 20658.8969 -2695.2197
