Info: SIMULATION PARAMETERS:
Info: TIMESTEP               1
Info: NUMBER OF STEPS        0
Info: STEPS PER CYCLE        10
Info: PERIODIC CELL BASIS 1  72.449 0 0
Info: PERIODIC CELL BASIS 2  0 93.247 0
Info: PERIODIC CELL BASIS 3  0 0 79.185
Info: PERIODIC CELL CENTER   -0.248 -0.156 -0.047
Info: WRAPPING WATERS AROUND PERIODIC BOUNDARIES ON OUTPUT.
Info: WRAPPING ALL CLUSTERS AROUND PERIODIC BOUNDARIES ON OUTPUT.
Info: FIRST LDB TIMESTEP     50
Info: LAST LDB TIMESTEP     -1
Info: HOM BACKGROUND SCALING 1
Info: PME BACKGROUND SCALING 1
Info: MIN ATOMS PER PATCH    40
Info: VELOCITY FILE          ../replicas/rep57/equilibration/eq1.vel
Info: CENTER OF MASS MOVING INITIALLY? NO
Info: DIELECTRIC             1
Info: EXCLUDE                SCALED ONE-FOUR
Info: 1-4 ELECTROSTATICS SCALED BY 0.833333
Info: MODIFIED 1-4 VDW PARAMETERS WILL BE USED
Info: DCD FILENAME           ../replicas/rep57/equilibration/eq2.dcd
Info: DCD FREQUENCY          5000
Info: DCD FIRST STEP         5000
Info: DCD FILE WILL CONTAIN UNIT CELL DATA
Info: XST FILENAME           ../replicas/rep57/equilibration/eq2.xst
Info: XST FREQUENCY          5000
Info: NO VELOCITY DCD OUTPUT
Info: NO FORCE DCD OUTPUT
Info: OUTPUT FILENAME        ../replicas/rep57/equilibration/eq2
Info: RESTART FILENAME       ../replicas/rep57/equilibration/eq2.restart
Info: RESTART FREQUENCY      5000
Info: BINARY RESTART FILES WILL BE USED
Info: SWITCHING ACTIVE
Info: SWITCHING ON           10
Info: SWITCHING OFF          12
Info: PAIRLIST DISTANCE      13.5
Info: PAIRLIST SHRINK RATE   0.01
Info: PAIRLIST GROW RATE     0.01
Info: PAIRLIST TRIGGER       0.3
Info: PAIRLISTS PER CYCLE    2
Info: PAIRLISTS ENABLED
Info: MARGIN                 0.48
Info: HYDROGEN GROUP CUTOFF  2.5
Info: PATCH DIMENSION        16.48
Info: ENERGY OUTPUT STEPS    500
Info: CROSSTERM ENERGY INCLUDED IN DIHEDRAL
Info: TIMING OUTPUT STEPS    5000
Info: PRESSURE OUTPUT STEPS  500
Info: HARMONIC CONSTRAINTS ACTIVE
Info: HARMONIC CONS EXP      2
Info: HARMONIC CONS SCALING  10
Info: LANGEVIN DYNAMICS ACTIVE
Info: LANGEVIN TEMPERATURE   300
Info: LANGEVIN USING BBK INTEGRATOR
Info: LANGEVIN DAMPING COEFFICIENT IS 5 INVERSE PS
Info: LANGEVIN DYNAMICS NOT APPLIED TO HYDROGENS
Info: BERENDSEN PRESSURE COUPLING ACTIVE
Info:     TARGET PRESSURE IS 1 BAR
Info:     COMPRESSIBILITY ESTIMATE IS 4.57e-05 BAR^(-1)
Info:     RELAXATION TIME IS 100 FS
Info:     APPLIED EVERY 2 STEPS
Info:     PRESSURE CONTROL IS GROUP-BASED
Info:       CELL FLUCTUATION IS ISOTROPIC
Info: PARTICLE MESH EWALD (PME) ACTIVE
Info: PME TOLERANCE               1e-06
Info: PME EWALD COEFFICIENT       0.257952
Info: PME INTERPOLATION ORDER     4
Info: PME GRID DIMENSIONS         80 96 80
Info: PME MAXIMUM GRID SPACING    1
Info: FULL ELECTROSTATIC EVALUATION FREQUENCY      2
Info: USING VERLET I (r-RESPA) MTS SCHEME.
Info: C1 SPLITTING OF LONG RANGE ELECTROSTATICS
Info: PLACING ATOMS IN PATCHES BY HYDROGEN GROUPS
Info: RIGID BONDS TO HYDROGEN : WATER
Info:         ERROR TOLERANCE : 1e-05
Info:          MAX ITERATIONS : 100
Info: RIGID WATER USING SETTLE ALGORITHM
Info: RANDOM NUMBER SEED     1503697522
Info: USE HYDROGEN BONDS?    NO
Info: Using AMBER format force field!
Info: AMBER PARM FILE        ../build/complex.top
Info: COORDINATE PDB         ../replicas/rep57/equilibration/eq1.coor
Info: Exclusions in PARM file will be ignored!
Info: SCNB (VDW SCALING)     2
Info: USING ARITHMETIC MEAN TO COMBINE L-J SIGMA PARAMETERS
Info: SUMMARY OF PARAMETERS:
Info: 71 BONDS
Info: 145 ANGLES
Info: 76 DIHEDRAL
Info: 0 IMPROPER
Info: 0 CROSSTERM
Info: 0 VDW
Info: 190 VDW_PAIRS
Info: 0 NBTHOLE_PAIRS
Info: STRUCTURE SUMMARY:
Info: 49394 ATOMS
Info: 49448 BONDS
Info: 8698 ANGLES
Info: 18780 DIHEDRALS
Info: 0 IMPROPERS
Info: 0 CROSSTERMS
Info: 0 EXCLUSIONS
Info: 2336 CONSTRAINTS
Info: 44667 RIGID BONDS
Info: 103515 DEGREES OF FREEDOM
Info: 17225 HYDROGEN GROUPS
Info: 4 ATOMS IN LARGEST HYDROGEN GROUP
Info: 17225 MIGRATION GROUPS
Info: 4 ATOMS IN LARGEST MIGRATION GROUP
Info: TOTAL MASS = 301478 amu
Info: TOTAL CHARGE = 1.00115e-05 e
Info: MASS DENSITY = 0.935846 g/cm^3
Info: ATOM DENSITY = 0.0923345 atoms/A^3
Info: ADDED 70656 IMPLICIT EXCLUSIONS
Info: NONBONDED TABLE R-SQUARED SPACING: 0.0625
Info: NONBONDED TABLE SIZE: 769 POINTS
Info: REMOVING COM VELOCITY -0.0136462 -0.0106841 -0.026566
TCL: Running for 5000 steps
ETITLE: TS BOND ANGLE DIHED IMPRP ELECT VDW BOUNDARY MISC KINETIC TOTAL TEMP POTENTIAL TOTAL3 TEMPAVG PRESSURE GPRESSURE VOLUME PRESSAVG GPRESSAVG
ENERGY: 0 397.8733 1207.0556 2917.3227 0.0000 -212681.6538 29494.5573 0.0000 0.0000 10007.3351 -168657.5099 97.2984 -178664.8450 -168647.9105 97.2984 -2422.8487 -2523.2445 534946.2959 -2422.8487 -2523.2445
ENERGY: 1000 1235.9776 1970.8505 3137.6905 0.0000 -193982.1347 26676.9262 748.6640 0.0000 24053.8740 -136158.1519 233.8687 -160212.0259 -136128.7224 218.1848 41.7238 35.0515 521238.6802 -21.8402 -21.7491
ENERGY: 2000 1511.1280 2148.5542 3152.8031 0.0000 -184433.2793 23382.9422 796.7758 0.0000 28035.4764 -125405.5996 272.5807 -153441.0760 -125365.8545 264.0445 -86.2735 -37.8544 515703.5230 -24.8017 -25.0280
ENERGY: 3000 1567.0375 2213.2934 3119.9623 0.0000 -179115.1189 21702.9179 787.5919 0.0000 29432.8871 -120291.4288 286.1673 -149724.3159 -120246.9880 285.1219 171.1952 23.3312 511871.3305 -15.4532 -15.7457
ENERGY: 4000 1559.7709 2237.7845 3147.2226 0.0000 -177193.3261 20779.7930 815.4965 0.0000 30391.7383 -118261.5203 295.4899 -148653.2585 -118215.0796 292.6938 -82.2918 22.8940 506383.8237 -20.0129 -20.1746
ENERGY: 5000 1553.6588 2276.1890 3151.8849 0.0000 -176444.1919 20576.8667 779.5388 0.0000 30441.8076 -117664.2462 295.9767 -148106.0538 -117620.1910 295.6322 -84.3936 -15.3045 505101.5607 -8.2523 -8.4538
TCL: Setting parameter constraintScaling to 5.0
TCL: Running for 5000 steps
ETITLE: TS BOND ANGLE DIHED IMPRP ELECT VDW BOUNDARY MISC KINETIC TOTAL TEMP POTENTIAL TOTAL3 TEMPAVG PRESSURE GPRESSURE VOLUME PRESSAVG GPRESSAVG
ENERGY: 5000 1553.6588 2276.1890 3151.8849 0.0000 -176444.1919 20576.8667 389.7694 0.0000 30439.7816 -118056.0416 295.9570 -148495.8232 -118009.2795 295.9570 -160.0527 -87.8851 505101.5607 -160.0527 -87.8851
ENERGY: 6000 1597.7831 2371.0828 3162.2206 0.0000 -175632.2435 20527.9062 629.9536 0.0000 30643.3769 -116699.9203 297.9365 -147343.2972 -116656.9760 297.8634 -15.1479 -2.1184 505088.5604 1.9713 1.9182
ENERGY: 7000 1632.9205 2311.7989 3158.5765 0.0000 -176027.6979 20451.8270 658.2686 0.0000 31010.1395 -116804.1669 301.5024 -147814.3064 -116752.4660 299.0895 -112.9722 -15.4041 502483.1468 -18.3853 -18.6904
ENERGY: 8000 1583.7091 2298.5841 3147.8184 0.0000 -175112.1923 20059.7127 643.0058 0.0000 30504.9079 -116874.4543 296.5902 -147379.3622 -116822.3106 298.5779 -74.1610 35.2139 504145.4301 16.2083 16.5285
ENERGY: 9000 1541.0150 2330.9429 3169.9366 0.0000 -174757.7233 19789.0088 655.1835 0.0000 30755.6964 -116515.9401 299.0286 -147271.6365 -116473.0212 299.7180 -60.8147 -48.6253 504888.7694 16.1199 15.9223
ENERGY: 10000 1596.7264 2316.6868 3152.4537 0.0000 -174980.2276 19774.9956 646.8761 0.0000 30878.8318 -116613.6571 300.2258 -147492.4889 -116565.6497 300.1143 -86.8827 -16.9835 502478.1535 -5.7442 -5.7716
TCL: Setting parameter constraintScaling to 2.5
TCL: Running for 5000 steps
ETITLE: TS BOND ANGLE DIHED IMPRP ELECT VDW BOUNDARY MISC KINETIC TOTAL TEMP POTENTIAL TOTAL3 TEMPAVG PRESSURE GPRESSURE VOLUME PRESSAVG GPRESSAVG
ENERGY: 10000 1596.7264 2316.6868 3152.4537 0.0000 -174980.2276 19774.9956 323.4381 0.0000 30876.8166 -116939.1104 300.2062 -147815.9270 -116893.7019 300.2062 -229.8179 -159.2403 502478.1535 -229.8179 -159.2403
ENERGY: 11000 1640.2713 2304.5561 3175.4359 0.0000 -175475.0962 20114.3337 486.7507 0.0000 30707.0415 -117046.7069 298.5555 -147753.7484 -116995.5328 300.4174 -9.6842 22.2704 501373.9299 -3.9824 -3.9869
ENERGY: 12000 1634.5207 2332.1853 3164.1330 0.0000 -176001.6934 20258.3974 524.6373 0.0000 30933.3256 -117154.4942 300.7556 -148087.8197 -117116.7551 299.6162 87.7327 89.9827 499762.2274 -11.6252 -11.8841
ENERGY: 13000 1669.5567 2367.1960 3183.9979 0.0000 -175703.9714 20238.6601 503.8948 0.0000 30628.4443 -117112.2216 297.7913 -147740.6659 -117063.9412 299.5043 -16.5161 64.2696 499949.2376 1.7960 1.5862
ENERGY: 14000 1649.6679 2331.8016 3163.8490 0.0000 -175962.2528 20266.2318 520.5208 0.0000 30768.8537 -117261.3281 299.1565 -148030.1817 -117214.5367 299.0574 21.0190 40.3511 499600.6280 3.8994 4.0489
ENERGY: 15000 1685.4833 2327.8271 3170.8562 0.0000 -175709.3213 20007.4842 520.4015 0.0000 30936.0855 -117061.1835 300.7824 -147997.2690 -117012.6000 299.6891 -2.4770 -9.3433 500766.9530 0.4106 -0.0484
TCL: Setting parameter constraintScaling to 1.25
TCL: Running for 5000 steps
ETITLE: TS BOND ANGLE DIHED IMPRP ELECT VDW BOUNDARY MISC KINETIC TOTAL TEMP POTENTIAL TOTAL3 TEMPAVG PRESSURE GPRESSURE VOLUME PRESSAVG GPRESSAVG
ENERGY: 15000 1685.4833 2327.8271 3170.8562 0.0000 -175709.3213 20007.4842 260.2008 0.0000 30934.0317 -117323.4381 300.7625 -148257.4698 -117280.7103 300.7625 -88.6960 -93.8535 500766.9530 -88.6960 -93.8535
ENERGY: 16000 1623.3234 2334.3990 3191.5059 0.0000 -176235.3933 20332.6770 420.9931 0.0000 30850.1171 -117482.3778 299.9466 -148332.4949 -117440.4900 298.6131 160.8394 48.9920 499613.6503 7.8131 7.2137
ENERGY: 17000 1658.5017 2336.9913 3195.1686 0.0000 -175994.2974 20335.1082 411.4476 0.0000 31041.1438 -117015.9361 301.8039 -148057.0800 -116967.6076 299.3410 -27.9922 38.0669 499932.1345 -5.9681 -5.5672
ENERGY: 18000 1611.5061 2386.1573 3188.1294 0.0000 -176056.9464 20230.5726 392.6257 0.0000 30777.3287 -117470.6265 299.2389 -148247.9552 -117426.5208 299.4823 -43.2799 -15.1381 498991.4001 -3.9496 -3.9977
ENERGY: 19000 1684.1612 2353.4341 3197.5608 0.0000 -176020.2469 20469.4824 401.8057 0.0000 30728.1028 -117185.6999 298.7603 -147913.8027 -117152.3045 299.2734 -5.0043 39.6481 496971.5001 -6.3519 -6.2675
ENERGY: 20000 1648.8584 2378.8638 3158.5240 0.0000 -175665.0264 20034.4118 384.3654 0.0000 31065.8097 -116994.1933 302.0437 -148060.0030 -116948.0480 301.0763 -37.1535 82.0819 496934.1611 0.5386 0.5142
TCL: Setting parameter constraintScaling to 0.625
TCL: Running for 5000 steps
ETITLE: TS BOND ANGLE DIHED IMPRP ELECT VDW BOUNDARY MISC KINETIC TOTAL TEMP POTENTIAL TOTAL3 TEMPAVG PRESSURE GPRESSURE VOLUME PRESSAVG GPRESSAVG
ENERGY: 20000 1648.8584 2378.8638 3158.5240 0.0000 -175665.0264 20034.4118 192.1827 0.0000 31063.7390 -117188.4467 302.0236 -148252.1857 -117146.4678 302.0236 -58.0029 61.4139 496934.1611 -58.0029 61.4139
ENERGY: 21000 1645.6577 2406.4547 3216.3244 0.0000 -176027.8583 19997.0102 329.8285 0.0000 30940.2723 -117492.3104 300.8231 -148432.5827 -117452.8412 299.5090 -135.2972 -63.2122 497631.8401 3.0122 3.3910
ENERGY: 22000 1613.1931 2440.0493 3213.8530 0.0000 -176265.0190 20332.2374 299.5591 0.0000 30800.4490 -117565.6782 299.4637 -148366.1273 -117514.5328 298.8716 21.4353 31.0827 497829.5424 -2.9463 -2.7999
ENERGY: 23000 1691.4040 2379.6110 3229.1753 0.0000 -175536.8739 19773.1364 324.2197 0.0000 30890.9654 -117248.3620 300.3437 -148139.3274 -117207.5680 298.9265 -101.6022 -61.3725 498186.5924 -5.3276 -5.2858
ENERGY: 24000 1601.4121 2405.4234 3182.7045 0.0000 -175085.0909 19686.3813 297.4511 0.0000 30778.2863 -117133.4322 299.2482 -147911.7185 -117085.4737 299.7102 -54.4427 -61.5613 497844.9303 7.5415 7.0983
ENERGY: 25000 1570.1199 2396.9509 3174.4813 0.0000 -175259.0624 19817.1439 328.9903 0.0000 30903.7194 -117067.6568 300.4677 -147971.3762 -117026.5341 300.3938 33.5157 86.8209 497986.6434 11.2103 10.9590
TCL: Setting parameter constraintScaling to 0.3125
TCL: Running for 5000 steps
ETITLE: TS BOND ANGLE DIHED IMPRP ELECT VDW BOUNDARY MISC KINETIC TOTAL TEMP POTENTIAL TOTAL3 TEMPAVG PRESSURE GPRESSURE VOLUME PRESSAVG GPRESSAVG
ENERGY: 25000 1570.1199 2396.9509 3174.4813 0.0000 -175259.0624 19817.1439 164.4951 0.0000 30901.6473 -117234.2241 300.4476 -148135.8713 -117190.0205 300.4476 27.7616 84.5410 497986.6434 27.7616 84.5410
ENERGY: 26000 1582.5599 2423.4891 3169.3803 0.0000 -176061.1740 20119.5657 243.0979 0.0000 30761.5028 -117761.5782 299.0850 -148523.0811 -117717.4726 298.3200 -20.8229 1.0308 498084.5719 -6.2260 -5.9987
ENERGY: 27000 1596.2250 2383.6949 3220.6760 0.0000 -175498.2635 19868.8782 258.5400 0.0000 30820.0418 -117350.2075 299.6542 -148170.2493 -117301.9719 298.8446 2.7870 14.9049 497472.0361 -9.9735 -10.0208
ENERGY: 28000 1683.4813 2408.6754 3167.4445 0.0000 -175586.4332 19852.4791 269.4774 0.0000 30727.1682 -117477.7072 298.7512 -148204.8754 -117439.0471 299.9421 -88.4659 25.3427 498453.0288 4.5274 4.9811
ENERGY: 29000 1629.1672 2365.9179 3222.7944 0.0000 -175636.6401 20165.0029 246.8760 0.0000 30954.1995 -117052.6822 300.9585 -148006.8817 -117001.6572 299.5084 -68.4807 19.7768 498596.8193 7.9775 8.0355
ENERGY: 30000 1693.5903 2390.5266 3234.3820 0.0000 -176125.0036 20288.5622 259.0193 0.0000 30760.0375 -117498.8856 299.0708 -148258.9231 -117455.5568 300.3567 -55.2091 36.8826 498480.9450 -2.2181 -2.8093
TCL: Setting parameter constraintScaling to 0.15625
TCL: Running for 5000 steps
ETITLE: TS BOND ANGLE DIHED IMPRP ELECT VDW BOUNDARY MISC KINETIC TOTAL TEMP POTENTIAL TOTAL3 TEMPAVG PRESSURE GPRESSURE VOLUME PRESSAVG GPRESSAVG
ENERGY: 30000 1693.5903 2390.5266 3234.3820 0.0000 -176125.0036 20288.5622 129.5096 0.0000 30758.0054 -117630.4273 299.0510 -148388.4327 -117586.6317 299.0510 -64.8503 32.6222 498480.9450 -64.8503 32.6222
ENERGY: 31000 1647.0916 2416.8083 3260.0645 0.0000 -176046.1729 20212.9856 204.2781 0.0000 30680.1104 -117624.8346 298.2937 -148304.9450 -117594.1899 300.4595 -44.8372 -39.9864 499552.1337 14.1164 14.2135
ENERGY: 32000 1655.2772 2464.2933 3198.5190 0.0000 -176106.2001 20106.6842 199.5075 0.0000 30938.8237 -117543.0953 300.8090 -148481.9190 -117497.6326 299.6282 -34.1736 11.3621 498001.1023 5.8096 5.8775
ENERGY: 33000 1664.6516 2370.9936 3220.2796 0.0000 -175833.3057 19981.7051 212.1943 0.0000 30900.7726 -117482.7090 300.4391 -148383.4816 -117439.9754 300.9369 -132.6129 -7.6741 498354.7991 11.7988 12.4172
ENERGY: 34000 1629.4806 2422.0949 3203.1061 0.0000 -175702.3671 20126.8717 220.2753 0.0000 30611.0247 -117489.5138 297.6220 -148100.5385 -117452.4095 300.0494 -28.4453 18.3191 498055.8162 7.3090 7.6836
ENERGY: 35000 1687.1722 2339.1133 3213.7072 0.0000 -175833.4146 20071.0705 210.5903 0.0000 30902.4972 -117409.2639 300.4559 -148311.7611 -117361.4434 300.0920 59.6585 107.3645 497990.4172 0.8084 0.5895
TCL: Setting parameter constraintScaling to 0.078125
TCL: Running for 5000 steps
ETITLE: TS BOND ANGLE DIHED IMPRP ELECT VDW BOUNDARY MISC KINETIC TOTAL TEMP POTENTIAL TOTAL3 TEMPAVG PRESSURE GPRESSURE VOLUME PRESSAVG GPRESSAVG
ENERGY: 35000 1687.1722 2339.1133 3213.7072 0.0000 -175833.4146 20071.0705 105.2952 0.0000 30900.4370 -117516.6192 300.4358 -148417.0563 -117471.1881 300.4358 47.6669 98.0443 497990.4172 47.6669 98.0443
ENERGY: 36000 1654.8630 2450.0731 3226.3430 0.0000 -176048.2412 20234.0244 154.0181 0.0000 30653.1691 -117675.7507 298.0317 -148328.9197 -117632.8165 299.7021 -36.8082 55.2921 498078.1742 10.7797 10.4696
ENERGY: 37000 1691.2394 2326.7872 3203.7173 0.0000 -175737.7077 20129.3092 149.8706 0.0000 30658.2252 -117578.5589 298.0809 -148236.7841 -117537.2557 299.6580 -93.7008 -78.5076 498916.1965 -2.5593 -2.7035
ENERGY: 38000 1631.6801 2412.3683 3219.5974 0.0000 -176152.5636 20038.0619 152.5134 0.0000 30828.9884 -117869.3541 299.7412 -148698.3425 -117816.6689 299.2097 -96.7457 -41.0229 497269.7263 -1.3101 -1.3919
ENERGY: 39000 1649.0802 2412.9187 3200.2495 0.0000 -176247.4196 20018.2959 151.8202 0.0000 30803.4217 -118011.6333 299.4926 -148815.0550 -117961.6531 298.9272 61.7236 9.1618 495449.0303 -5.1444 -5.5000
ENERGY: 40000 1664.2017 2369.8287 3197.6019 0.0000 -175459.4293 19820.1018 165.2514 0.0000 30895.1148 -117347.3291 300.3841 -148242.4439 -117296.2479 300.4009 -175.6618 -65.3165 495142.0440 -1.1468 -1.3337
TCL: Setting parameter constraintScaling to 0.0390625
TCL: Running for 5000 steps
ETITLE: TS BOND ANGLE DIHED IMPRP ELECT VDW BOUNDARY MISC KINETIC TOTAL TEMP POTENTIAL TOTAL3 TEMPAVG PRESSURE GPRESSURE VOLUME PRESSAVG GPRESSAVG
ENERGY: 40000 1664.2017 2369.8287 3197.6019 0.0000 -175459.4293 19820.1018 82.6257 0.0000 30893.0485 -117432.0211 300.3640 -148325.0696 -117384.5960 300.3640 -173.9383 -72.7994 495142.0440 -173.9383 -72.7994
ENERGY: 41000 1667.1940 2375.2096 3209.1493 0.0000 -176166.4993 20211.1234 113.4004 0.0000 30650.2279 -117940.1947 298.0031 -148590.4226 -117900.2950 300.0411 -54.0378 -35.9679 495989.6491 11.3876 11.1323
ENERGY: 42000 1679.9651 2429.9766 3194.6008 0.0000 -175889.2643 20094.6497 122.1215 0.0000 30872.2543 -117495.6963 300.1618 -148367.9506 -117447.1860 300.4602 -174.5126 -85.8689 497372.0142 3.7553 3.9486
ENERGY: 43000 1684.0204 2430.1539 3188.7032 0.0000 -175721.5335 19962.5829 124.2449 0.0000 31050.4819 -117281.3463 301.8947 -148331.8281 -117237.4979 301.0083 -119.7259 -109.1847 497345.2650 6.3345 5.9470
ENERGY: 44000 1617.1617 2369.6467 3222.2766 0.0000 -175927.8026 20029.9836 129.9609 0.0000 30816.9940 -117741.7791 299.6245 -148558.7731 -117695.0311 299.5712 -147.3407 -115.0844 498069.7754 0.4304 1.1057
ENERGY: 45000 1588.5692 2373.4487 3181.8441 0.0000 -175824.8666 19989.1187 124.9246 0.0000 30769.9505 -117797.0109 299.1671 -148566.9613 -117743.1172 299.3927 -75.2035 -30.7985 497132.6319 -12.5650 -12.6792
TCL: Setting parameter constraintScaling to 0.01953125
TCL: Running for 5000 steps
ETITLE: TS BOND ANGLE DIHED IMPRP ELECT VDW BOUNDARY MISC KINETIC TOTAL TEMP POTENTIAL TOTAL3 TEMPAVG PRESSURE GPRESSURE VOLUME PRESSAVG GPRESSAVG
ENERGY: 45000 1588.5692 2373.4487 3181.8441 0.0000 -175824.8666 19989.1187 62.4623 0.0000 30767.8713 -117861.5523 299.1469 -148629.4236 -117814.4588 299.1469 -87.2133 -41.3036 497132.6319 -87.2133 -41.3036
ENERGY: 46000 1631.2501 2388.5816 3204.6129 0.0000 -176195.2650 20125.5035 71.5057 0.0000 30533.1748 -118240.6365 296.8650 -148773.8112 -118198.0900 298.8022 -62.9987 20.7649 497174.0195 12.3504 12.3261
ENERGY: 47000 1605.1084 2371.8736 3226.0969 0.0000 -176106.0022 20087.4636 73.7764 0.0000 30793.2306 -117948.4528 299.3935 -148741.6834 -117910.8903 298.7374 10.7271 40.5922 497182.6914 -1.8465 -2.0001
ENERGY: 48000 1673.4477 2339.0178 3200.6460 0.0000 -176445.1286 20270.4202 85.1907 0.0000 30752.8725 -118123.5336 299.0011 -148876.4062 -118079.0778 298.7719 7.1353 -12.3751 497636.7904 5.1254 5.3316
ENERGY: 49000 1656.1401 2463.6463 3221.4770 0.0000 -176330.4473 20215.5855 85.2339 0.0000 30827.9776 -117860.3869 299.7313 -148688.3645 -117831.1854 298.7806 -104.4949 14.3808 496317.7949 -6.2059 -5.5841
ENERGY: 50000 1593.9278 2411.7906 3202.6443 0.0000 -175931.7177 19964.2044 92.1882 0.0000 30973.7876 -117693.1748 301.1490 -148666.9624 -117655.1567 300.0450 -17.0709 84.2170 496062.8425 7.6560 7.3123
TCL: Setting parameter constraintScaling to 0
TCL: Running for 5000 steps
ETITLE: TS BOND ANGLE DIHED IMPRP ELECT VDW BOUNDARY MISC KINETIC TOTAL TEMP POTENTIAL TOTAL3 TEMPAVG PRESSURE GPRESSURE VOLUME PRESSAVG GPRESSAVG
ENERGY: 50000 1593.9278 2411.7906 3202.6443 0.0000 -175931.7177 19964.2044 0.0000 0.0000 30971.7510 -117787.3996 301.1292 -148759.1506 -117744.6601 301.1292 -22.0942 77.6236 496062.8425 -22.0942 77.6236
ENERGY: 51000 1645.4564 2420.5216 3202.3859 0.0000 -176079.1566 20050.6105 0.0000 0.0000 30754.9863 -118005.1959 299.0217 -148760.1822 -117954.6541 299.5913 -55.6792 -14.3854 496785.1325 5.2517 6.0036
ENERGY: 52000 1634.3156 2319.4418 3214.3334 0.0000 -176409.0360 20311.6839 0.0000 0.0000 30803.5781 -118125.6833 299.4941 -148929.2613 -118078.2515 298.7668 -55.5493 -45.0759 498417.8451 14.1930 14.3658
ENERGY: 53000 1670.5660 2419.9308 3209.9862 0.0000 -176095.1338 20062.5130 0.0000 0.0000 30779.5124 -117952.6254 299.2601 -148732.1378 -117906.3720 299.6692 -121.0790 -66.0600 497216.1212 -0.7556 -0.9002
ENERGY: 54000 1696.2492 2400.9177 3220.9719 0.0000 -175808.7691 19904.3483 0.0000 0.0000 30749.0603 -117837.2218 298.9640 -148586.2821 -117794.1794 299.1143 -25.6830 -17.5080 496626.2600 -2.2331 -2.4285
ENERGY: 55000 1636.7594 2378.0240 3242.3133 0.0000 -175871.4955 20060.5224 0.0000 0.0000 30728.9864 -117824.8901 298.7689 -148553.8765 -117771.7198 300.1140 -36.9985 -70.1706 497675.0072 1.3924 1.1578
