Info: SIMULATION PARAMETERS:
Info: TIMESTEP               2
Info: NUMBER OF STEPS        0
Info: STEPS PER CYCLE        10
Info: PERIODIC CELL BASIS 1  72.449 0 0
Info: PERIODIC CELL BASIS 2  0 93.247 0
Info: PERIODIC CELL BASIS 3  0 0 79.185
Info: PERIODIC CELL CENTER   -0.248 -0.156 -0.047
Info: WRAPPING WATERS AROUND PERIODIC BOUNDARIES ON OUTPUT.
Info: WRAPPING ALL CLUSTERS AROUND PERIODIC BOUNDARIES ON OUTPUT.
Info: FIRST LDB TIMESTEP     50
Info: LAST LDB TIMESTEP     -1
Info: HOM BACKGROUND SCALING 1
Info: PME BACKGROUND SCALING 1
Info: MIN ATOMS PER PATCH    40
Info: INITIAL TEMPERATURE    0
Info: CENTER OF MASS MOVING INITIALLY? NO
Info: DIELECTRIC             1
Info: EXCLUDE                SCALED ONE-FOUR
Info: 1-4 ELECTROSTATICS SCALED BY 0.833333
Info: MODIFIED 1-4 VDW PARAMETERS WILL BE USED
Info: NO DCD TRAJECTORY OUTPUT
Info: NO EXTENDED SYSTEM TRAJECTORY OUTPUT
Info: NO VELOCITY DCD OUTPUT
Info: NO FORCE DCD OUTPUT
Info: OUTPUT FILENAME        ../replicas/rep27/equilibration/eq0
Info: NO RESTART FILE
Info: SWITCHING ACTIVE
Info: SWITCHING ON           10
Info: SWITCHING OFF          12
Info: PAIRLIST DISTANCE      13.5
Info: PAIRLIST SHRINK RATE   0.01
Info: PAIRLIST GROW RATE     0.01
Info: PAIRLIST TRIGGER       0.3
Info: PAIRLISTS PER CYCLE    2
Info: PAIRLISTS ENABLED
Info: MARGIN                 0
Info: HYDROGEN GROUP CUTOFF  2.5
Info: PATCH DIMENSION        16
Info: ENERGY OUTPUT STEPS    500
Info: CROSSTERM ENERGY INCLUDED IN DIHEDRAL
Info: TIMING OUTPUT STEPS    5000
Info: PRESSURE OUTPUT STEPS  500
Info: HARMONIC CONSTRAINTS ACTIVE
Info: HARMONIC CONS EXP      2
Info: HARMONIC CONS SCALING  10
Info: CONJUGATE GRADIENT MINIMIZATION ACTIVE
Info: LINE MINIMIZATION GOAL = 0.001
Info: BABY STEP SIZE = 0.01
Info: TINY STEP SIZE = 1e-06
Info: PARTICLE MESH EWALD (PME) ACTIVE
Info: PME TOLERANCE               1e-06
Info: PME EWALD COEFFICIENT       0.257952
Info: PME INTERPOLATION ORDER     4
Info: PME GRID DIMENSIONS         80 96 80
Info: PME MAXIMUM GRID SPACING    1
Info: FULL ELECTROSTATIC EVALUATION FREQUENCY      2
Info: USING VERLET I (r-RESPA) MTS SCHEME.
Info: C1 SPLITTING OF LONG RANGE ELECTROSTATICS
Info: PLACING ATOMS IN PATCHES BY HYDROGEN GROUPS
Info: RIGID BONDS TO HYDROGEN : ALL
Info:         ERROR TOLERANCE : 1e-05
Info:          MAX ITERATIONS : 100
Info: RIGID WATER USING SETTLE ALGORITHM
Info: RANDOM NUMBER SEED     1503706051
Info: USE HYDROGEN BONDS?    NO
Info: Using AMBER format force field!
Info: AMBER PARM FILE        ../build/complex.top
Info: COORDINATE PDB         ../build/complex.pdb
Info: Exclusions in PARM file will be ignored!
Info: SCNB (VDW SCALING)     2
Info: USING ARITHMETIC MEAN TO COMBINE L-J SIGMA PARAMETERS
Info: SUMMARY OF PARAMETERS:
Info: 71 BONDS
Info: 145 ANGLES
Info: 76 DIHEDRAL
Info: 0 IMPROPER
Info: 0 CROSSTERM
Info: 0 VDW
Info: 190 VDW_PAIRS
Info: 0 NBTHOLE_PAIRS
Info: STRUCTURE SUMMARY:
Info: 49394 ATOMS
Info: 49448 BONDS
Info: 8698 ANGLES
Info: 18780 DIHEDRALS
Info: 0 IMPROPERS
Info: 0 CROSSTERMS
Info: 0 EXCLUSIONS
Info: 2336 CONSTRAINTS
Info: 47058 RIGID BONDS
Info: 101124 DEGREES OF FREEDOM
Info: 17225 HYDROGEN GROUPS
Info: 4 ATOMS IN LARGEST HYDROGEN GROUP
Info: 17225 MIGRATION GROUPS
Info: 4 ATOMS IN LARGEST MIGRATION GROUP
Info: TOTAL MASS = 301478 amu
Info: TOTAL CHARGE = 1.00115e-05 e
Info: MASS DENSITY = 0.935846 g/cm^3
Info: ATOM DENSITY = 0.0923345 atoms/A^3
Info: ADDED 70656 IMPLICIT EXCLUSIONS
Info: NONBONDED TABLE R-SQUARED SPACING: 0.0625
Info: NONBONDED TABLE SIZE: 769 POINTS
Info: REMOVING COM VELOCITY 0 0 0
TCL: Minimizing for 100 steps
ETITLE: TS BOND ANGLE DIHED IMPRP ELECT VDW BOUNDARY MISC KINETIC TOTAL TEMP POTENTIAL TOTAL3 TEMPAVG PRESSURE GPRESSURE VOLUME PRESSAVG GPRESSAVG
ENERGY: 0 155.4176 1012.2698 2855.7272 0.0000 -154496.7912 207729.2052 0.0468 0.0000 0.0000 57255.8754 0.0000 57255.8754 57255.8754 0.0000 116350.2532 86546.1670 534946.2959 116350.2532 86546.1670
ENERGY: 20 304.7526 935.7909 2893.4663 0.0000 -158672.9385 17936.6604 143.9453 0.0000 0.0000 -136458.3231 0.0000 -136458.3231 -136458.3231 0.0000 16523.9398 -239.4546 534946.2959 16523.9398 -239.4546
ENERGY: 40 198.7419 799.5723 2896.9273 0.0000 -162811.4552 16417.9531 221.3030 0.0000 0.0000 -142276.9576 0.0000 -142276.9576 -142276.9576 0.0000 15011.2697 -2135.4706 534946.2959 15011.2697 -2135.4706
ENERGY: 60 130.5285 715.3440 2898.2165 0.0000 -167496.1575 15446.7539 315.2796 0.0000 0.0000 -147990.0350 0.0000 -147990.0350 -147990.0350 0.0000 13793.8837 -3799.3988 534946.2959 13793.8837 -3799.3988
ENERGY: 80 431.2770 765.6315 2904.3783 0.0000 -169937.5272 15121.1526 372.0121 0.0000 0.0000 -150343.0757 0.0000 -150343.0757 -150343.0757 0.0000 13270.3316 -4577.2448 534946.2959 13270.3316 -4577.2448
ENERGY: 100 119.3884 710.0602 2905.2588 0.0000 -171259.7180 14991.7865 387.3612 0.0000 0.0000 -152145.8628 0.0000 -152145.8628 -152145.8628 0.0000 13056.2646 -4908.1743 534946.2959 13056.2646 -4908.1743
TCL: Setting parameter constraintScaling to 5.0
TCL: Minimizing for 100 steps
ETITLE: TS BOND ANGLE DIHED IMPRP ELECT VDW BOUNDARY MISC KINETIC TOTAL TEMP POTENTIAL TOTAL3 TEMPAVG PRESSURE GPRESSURE VOLUME PRESSAVG GPRESSAVG
ENERGY: 100 119.3884 710.0602 2905.2588 0.0000 -171259.7180 14991.7865 193.6806 0.0000 0.0000 -152339.5434 0.0000 -152339.5434 -152339.5434 0.0000 13672.7708 -23021.8201 534946.2959 13672.7708 -23021.8201
ENERGY: 120 108.8874 687.5855 2912.9268 0.0000 -172865.8620 14798.2716 281.1910 0.0000 0.0000 -154076.9996 0.0000 -154076.9996 -154076.9996 0.0000 13218.2584 -4906.0103 534946.2959 13218.2584 -4906.0103
ENERGY: 140 309.4891 708.8757 2913.8028 0.0000 -174236.5814 14731.4863 326.6372 0.0000 0.0000 -155246.2903 0.0000 -155246.2903 -155246.2903 0.0000 12971.5347 -5303.2238 534946.2959 12971.5347 -5303.2238
ENERGY: 160 265.0213 683.0490 2923.1614 0.0000 -176274.0008 14757.2560 382.8402 0.0000 0.0000 -157262.6729 0.0000 -157262.6729 -157262.6729 0.0000 12741.1285 -5741.5895 534946.2959 12741.1285 -5741.5895
ENERGY: 180 269.0375 744.0936 2928.5665 0.0000 -178994.3590 15023.3401 473.2485 0.0000 0.0000 -159556.0729 0.0000 -159556.0729 -159556.0729 0.0000 12521.6635 -6222.6269 534946.2959 12521.6635 -6222.6269
ENERGY: 200 238.7501 694.1056 2941.3535 0.0000 -181555.5301 15586.8811 546.2531 0.0000 0.0000 -161548.1867 0.0000 -161548.1867 -161548.1867 0.0000 12582.6354 -6423.5275 534946.2959 12582.6354 -6423.5275
TCL: Setting parameter constraintScaling to 2.5
TCL: Minimizing for 100 steps
ETITLE: TS BOND ANGLE DIHED IMPRP ELECT VDW BOUNDARY MISC KINETIC TOTAL TEMP POTENTIAL TOTAL3 TEMPAVG PRESSURE GPRESSURE VOLUME PRESSAVG GPRESSAVG
ENERGY: 200 238.7501 694.1056 2941.3535 0.0000 -181555.5301 15586.8811 273.1265 0.0000 0.0000 -161821.3132 0.0000 -161821.3132 -161821.3132 0.0000 13229.5251 -25654.2715 534946.2959 13229.5251 -25654.2715
ENERGY: 220 245.9209 677.4204 2933.0004 0.0000 -182075.2887 15471.7918 337.5669 0.0000 0.0000 -162409.5882 0.0000 -162409.5882 -162409.5882 0.0000 12971.8723 -6088.8519 534946.2959 12971.8723 -6088.8519
ENERGY: 240 154.5065 693.8693 2928.6937 0.0000 -182681.6374 15529.4015 347.1468 0.0000 0.0000 -163028.0195 0.0000 -163028.0195 -163028.0195 0.0000 13033.0276 -6131.3016 534946.2959 13033.0276 -6131.3016
ENERGY: 260 177.2024 683.1999 2920.2800 0.0000 -184291.2270 15886.7526 398.7343 0.0000 0.0000 -164225.0578 0.0000 -164225.0578 -164225.0578 0.0000 13054.5644 -6273.1543 534946.2959 13054.5644 -6273.1543
ENERGY: 280 169.4173 701.0332 2917.6190 0.0000 -185425.9088 16230.3484 454.7945 0.0000 0.0000 -164952.6963 0.0000 -164952.6963 -164952.6963 0.0000 13144.3363 -6337.1963 534946.2959 13144.3363 -6337.1963
ENERGY: 300 126.6962 639.5890 2916.2585 0.0000 -186097.7525 16447.2131 481.3862 0.0000 0.0000 -165486.6096 0.0000 -165486.6096 -165486.6096 0.0000 13208.4271 -6341.4983 534946.2959 13208.4271 -6341.4983
TCL: Setting parameter constraintScaling to 1.25
TCL: Minimizing for 100 steps
ETITLE: TS BOND ANGLE DIHED IMPRP ELECT VDW BOUNDARY MISC KINETIC TOTAL TEMP POTENTIAL TOTAL3 TEMPAVG PRESSURE GPRESSURE VOLUME PRESSAVG GPRESSAVG
ENERGY: 300 126.6962 639.5890 2916.2585 0.0000 -186097.7525 16447.2131 240.6931 0.0000 0.0000 -165727.3027 0.0000 -165727.3027 -165727.3027 0.0000 13656.7923 -26351.8239 534946.2959 13656.7923 -26351.8239
ENERGY: 320 132.2444 624.6042 2911.1440 0.0000 -186669.1950 16581.1457 272.7867 0.0000 0.0000 -166147.2699 0.0000 -166147.2699 -166147.2699 0.0000 13630.3284 -5973.0048 534946.2959 13630.3284 -5973.0048
ENERGY: 340 207.6514 644.7486 2912.2227 0.0000 -187463.2922 16837.7441 301.8977 0.0000 0.0000 -166559.0278 0.0000 -166559.0278 -166559.0278 0.0000 13612.1059 -6041.9939 534946.2959 13612.1059 -6041.9939
ENERGY: 360 300.5118 691.6377 2906.9881 0.0000 -189100.9636 17408.2712 364.8785 0.0000 0.0000 -167428.6763 0.0000 -167428.6763 -167428.6763 0.0000 13892.5226 -6002.6153 534946.2959 13892.5226 -6002.6153
ENERGY: 380 181.0688 658.1664 2901.4284 0.0000 -189980.8229 17758.5408 385.4066 0.0000 0.0000 -168096.2118 0.0000 -168096.2118 -168096.2118 0.0000 13982.5482 -5983.6614 534946.2959 13982.5482 -5983.6614
ENERGY: 400 139.7617 634.3434 2899.4918 0.0000 -190551.1704 17964.7631 398.6557 0.0000 0.0000 -168514.1546 0.0000 -168514.1546 -168514.1546 0.0000 14134.1996 -5917.3433 534946.2959 14134.1996 -5917.3433
TCL: Setting parameter constraintScaling to 0.625
TCL: Minimizing for 100 steps
ETITLE: TS BOND ANGLE DIHED IMPRP ELECT VDW BOUNDARY MISC KINETIC TOTAL TEMP POTENTIAL TOTAL3 TEMPAVG PRESSURE GPRESSURE VOLUME PRESSAVG GPRESSAVG
ENERGY: 400 139.7617 634.3434 2899.4918 0.0000 -190551.1704 17964.7631 199.3279 0.0000 0.0000 -168713.4825 0.0000 -168713.4825 -168713.4825 0.0000 14434.0637 -26613.9935 534946.2959 14434.0637 -26613.9935
ENERGY: 420 146.9941 627.0585 2895.3181 0.0000 -190953.9312 18054.2579 220.8346 0.0000 0.0000 -169009.4678 0.0000 -169009.4678 -169009.4678 0.0000 14361.3603 -5717.6938 534946.2959 14361.3603 -5717.6938
ENERGY: 440 145.5447 625.1031 2892.4433 0.0000 -191450.7944 18210.6078 235.0936 0.0000 0.0000 -169342.0019 0.0000 -169342.0019 -169342.0019 0.0000 14393.2835 -5731.7600 534946.2959 14393.2835 -5731.7600
ENERGY: 460 194.4794 681.1873 2892.5389 0.0000 -192652.6127 18627.5980 271.9539 0.0000 0.0000 -169984.8552 0.0000 -169984.8552 -169984.8552 0.0000 14651.5413 -5668.5284 534946.2959 14651.5413 -5668.5284
ENERGY: 480 166.7587 639.8466 2885.3451 0.0000 -192881.1121 18721.8540 274.3823 0.0000 0.0000 -170192.9254 0.0000 -170192.9254 -170192.9254 0.0000 14586.9299 -5704.3005 534946.2959 14586.9299 -5704.3005
ENERGY: 500 213.3991 672.6507 2884.1421 0.0000 -194014.2764 19155.3494 300.7914 0.0000 0.0000 -170787.9437 0.0000 -170787.9437 -170787.9437 0.0000 14802.0507 -5625.0039 534946.2959 14802.0507 -5625.0039
TCL: Setting parameter constraintScaling to 0.3125
TCL: Minimizing for 100 steps
ETITLE: TS BOND ANGLE DIHED IMPRP ELECT VDW BOUNDARY MISC KINETIC TOTAL TEMP POTENTIAL TOTAL3 TEMPAVG PRESSURE GPRESSURE VOLUME PRESSAVG GPRESSAVG
ENERGY: 500 213.3991 672.6507 2884.1421 0.0000 -194014.2764 19155.3494 150.3957 0.0000 0.0000 -170938.3394 0.0000 -170938.3394 -170938.3394 0.0000 14995.5081 -26868.5713 534946.2959 14995.5081 -26868.5713
ENERGY: 520 183.1742 680.2719 2880.2115 0.0000 -194487.1389 19323.4000 163.4758 0.0000 0.0000 -171256.6055 0.0000 -171256.6055 -171256.6055 0.0000 15042.0359 -5445.1853 534946.2959 15042.0359 -5445.1853
ENERGY: 540 218.0026 674.7892 2882.3201 0.0000 -195093.6452 19528.7132 183.1567 0.0000 0.0000 -171606.6634 0.0000 -171606.6634 -171606.6634 0.0000 15067.5806 -5479.8590 534946.2959 15067.5806 -5479.8590
ENERGY: 560 158.3708 653.7433 2872.3224 0.0000 -195815.7533 19806.9811 198.7009 0.0000 0.0000 -172125.6348 0.0000 -172125.6348 -172125.6348 0.0000 15239.9503 -5388.0395 534946.2959 15239.9503 -5388.0395
ENERGY: 580 166.8261 647.0712 2864.4137 0.0000 -196661.1627 20156.2120 216.5210 0.0000 0.0000 -172610.1187 0.0000 -172610.1187 -172610.1187 0.0000 15390.1313 -5337.5526 534946.2959 15390.1313 -5337.5526
ENERGY: 600 168.8181 674.1286 2873.2242 0.0000 -196850.6482 20219.4479 221.9005 0.0000 0.0000 -172693.1289 0.0000 -172693.1289 -172693.1289 0.0000 15389.8382 -5362.1231 534946.2959 15389.8382 -5362.1231
TCL: Setting parameter constraintScaling to 0.15625
TCL: Minimizing for 100 steps
ETITLE: TS BOND ANGLE DIHED IMPRP ELECT VDW BOUNDARY MISC KINETIC TOTAL TEMP POTENTIAL TOTAL3 TEMPAVG PRESSURE GPRESSURE VOLUME PRESSAVG GPRESSAVG
ENERGY: 600 168.8181 674.1286 2873.2242 0.0000 -196850.6482 20219.4479 110.9503 0.0000 0.0000 -172804.0792 0.0000 -172804.0792 -172804.0792 0.0000 15511.4449 -27019.0282 534946.2959 15511.4449 -27019.0282
ENERGY: 620 158.8844 650.7132 2860.2644 0.0000 -197000.2017 20282.6933 111.7167 0.0000 0.0000 -172935.9297 0.0000 -172935.9297 -172935.9297 0.0000 15556.3221 -5210.0127 534946.2959 15556.3221 -5210.0127
ENERGY: 640 250.4091 711.8186 2857.2364 0.0000 -197799.3249 20572.4039 124.7857 0.0000 0.0000 -173282.6712 0.0000 -173282.6712 -173282.6712 0.0000 15644.8373 -5220.9336 534946.2959 15644.8373 -5220.9336
ENERGY: 660 167.6615 662.1836 2855.2971 0.0000 -197904.4586 20607.4605 125.3121 0.0000 0.0000 -173486.5438 0.0000 -173486.5438 -173486.5438 0.0000 15700.1489 -5166.3450 534946.2959 15700.1489 -5166.3450
ENERGY: 680 162.2384 643.7327 2855.6761 0.0000 -198510.1411 20825.4643 132.5217 0.0000 0.0000 -173890.5080 0.0000 -173890.5080 -173890.5080 0.0000 15783.7973 -5153.2231 534946.2959 15783.7973 -5153.2231
ENERGY: 700 168.6735 649.3949 2846.7125 0.0000 -199249.8004 21107.0039 144.0951 0.0000 0.0000 -174333.9205 0.0000 -174333.9205 -174333.9205 0.0000 15918.1910 -5112.3372 534946.2959 15918.1910 -5112.3372
TCL: Setting parameter constraintScaling to 0.078125
TCL: Minimizing for 100 steps
ETITLE: TS BOND ANGLE DIHED IMPRP ELECT VDW BOUNDARY MISC KINETIC TOTAL TEMP POTENTIAL TOTAL3 TEMPAVG PRESSURE GPRESSURE VOLUME PRESSAVG GPRESSAVG
ENERGY: 700 168.6735 649.3949 2846.7125 0.0000 -199249.8004 21107.0039 72.0475 0.0000 0.0000 -174405.9681 0.0000 -174405.9681 -174405.9681 0.0000 15989.8380 -27111.0996 534946.2959 15989.8380 -27111.0996
ENERGY: 720 164.6116 658.2552 2849.9841 0.0000 -199489.6719 21196.7011 73.9791 0.0000 0.0000 -174546.1408 0.0000 -174546.1408 -174546.1408 0.0000 16016.5485 -5031.0428 534946.2959 16016.5485 -5031.0428
ENERGY: 740 185.1252 671.7663 2844.6006 0.0000 -199774.3296 21295.8693 77.1521 0.0000 0.0000 -174699.8161 0.0000 -174699.8161 -174699.8161 0.0000 16056.7401 -5017.8304 534946.2959 16056.7401 -5017.8304
ENERGY: 760 162.2833 656.8815 2842.0896 0.0000 -199907.2306 21341.0918 78.4410 0.0000 0.0000 -174826.4434 0.0000 -174826.4434 -174826.4434 0.0000 16092.8052 -5018.7082 534946.2959 16092.8052 -5018.7082
ENERGY: 780 191.5580 668.1273 2847.4216 0.0000 -200107.8934 21417.3715 79.7261 0.0000 0.0000 -174903.6890 0.0000 -174903.6890 -174903.6890 0.0000 16095.3122 -5022.4804 534946.2959 16095.3122 -5022.4804
ENERGY: 800 187.0944 677.1486 2843.2200 0.0000 -200587.2217 21593.9744 83.2854 0.0000 0.0000 -175202.4990 0.0000 -175202.4990 -175202.4990 0.0000 16268.5421 -4933.1819 534946.2959 16268.5421 -4933.1819
TCL: Setting parameter constraintScaling to 0.0390625
TCL: Minimizing for 100 steps
ETITLE: TS BOND ANGLE DIHED IMPRP ELECT VDW BOUNDARY MISC KINETIC TOTAL TEMP POTENTIAL TOTAL3 TEMPAVG PRESSURE GPRESSURE VOLUME PRESSAVG GPRESSAVG
ENERGY: 800 187.0944 677.1486 2843.2200 0.0000 -200587.2217 21593.9744 41.6427 0.0000 0.0000 -175244.1417 0.0000 -175244.1417 -175244.1417 0.0000 16307.6674 -27115.5058 534946.2959 16307.6674 -27115.5058
ENERGY: 820 163.0799 675.1503 2835.3973 0.0000 -200835.2066 21679.2438 43.6004 0.0000 0.0000 -175438.7350 0.0000 -175438.7350 -175438.7350 0.0000 16333.1486 -4900.8763 534946.2959 16333.1486 -4900.8763
ENERGY: 840 170.1794 662.4774 2833.5484 0.0000 -201332.8823 21873.7248 46.6466 0.0000 0.0000 -175746.3056 0.0000 -175746.3056 -175746.3056 0.0000 16339.7527 -4918.8126 534946.2959 16339.7527 -4918.8126
ENERGY: 860 166.1871 656.3810 2833.9383 0.0000 -201604.6379 21988.0042 46.7896 0.0000 0.0000 -175913.3378 0.0000 -175913.3378 -175913.3378 0.0000 16433.0588 -4855.6516 534946.2959 16433.0588 -4855.6516
ENERGY: 880 231.1928 705.3329 2831.6205 0.0000 -202368.7543 22277.7517 50.9684 0.0000 0.0000 -176271.8880 0.0000 -176271.8880 -176271.8880 0.0000 16624.4932 -4794.8637 534946.2959 16624.4932 -4794.8637
ENERGY: 900 196.0296 675.5045 2821.1195 0.0000 -202911.6498 22524.7003 53.9915 0.0000 0.0000 -176640.3045 0.0000 -176640.3045 -176640.3045 0.0000 16712.2420 -4750.6647 534946.2959 16712.2420 -4750.6647
TCL: Setting parameter constraintScaling to 0.01953125
TCL: Minimizing for 100 steps
ETITLE: TS BOND ANGLE DIHED IMPRP ELECT VDW BOUNDARY MISC KINETIC TOTAL TEMP POTENTIAL TOTAL3 TEMPAVG PRESSURE GPRESSURE VOLUME PRESSAVG GPRESSAVG
ENERGY: 900 196.0296 675.5045 2821.1195 0.0000 -202911.6498 22524.7003 26.9957 0.0000 0.0000 -176667.3003 0.0000 -176667.3003 -176667.3003 0.0000 16735.2171 -27245.1109 534946.2959 16735.2171 -27245.1109
ENERGY: 920 166.9380 653.3081 2822.9740 0.0000 -203029.8449 22568.7224 27.2271 0.0000 0.0000 -176790.6753 0.0000 -176790.6753 -176790.6753 0.0000 16759.9455 -4710.2279 534946.2959 16759.9455 -4710.2279
ENERGY: 940 190.7451 665.1107 2823.2639 0.0000 -203544.7264 22789.8121 28.6264 0.0000 0.0000 -177047.1682 0.0000 -177047.1682 -177047.1682 0.0000 16840.8574 -4680.2378 534946.2959 16840.8574 -4680.2378
ENERGY: 960 208.2768 676.9716 2820.7147 0.0000 -203734.1986 22867.6710 29.4997 0.0000 0.0000 -177131.0648 0.0000 -177131.0648 -177131.0648 0.0000 16850.3824 -4680.5058 534946.2959 16850.3824 -4680.5058
ENERGY: 980 178.8453 666.8134 2813.8553 0.0000 -204231.3586 23077.4785 30.6120 0.0000 0.0000 -177463.7541 0.0000 -177463.7541 -177463.7541 0.0000 16996.1227 -4610.5911 534946.2959 16996.1227 -4610.5911
ENERGY: 1000 177.2520 662.6663 2815.1547 0.0000 -204820.9908 23349.0474 32.2059 0.0000 0.0000 -177784.6645 0.0000 -177784.6645 -177784.6645 0.0000 17155.2469 -4525.0658 534946.2959 17155.2469 -4525.0658
TCL: Setting parameter constraintScaling to 0
TCL: Minimizing for 5000 steps
ETITLE: TS BOND ANGLE DIHED IMPRP ELECT VDW BOUNDARY MISC KINETIC TOTAL TEMP POTENTIAL TOTAL3 TEMPAVG PRESSURE GPRESSURE VOLUME PRESSAVG GPRESSAVG
ENERGY: 1000 177.2520 662.6663 2815.1547 0.0000 -204820.9908 23349.0474 0.0000 0.0000 0.0000 -177816.8704 0.0000 -177816.8704 -177816.8704 0.0000 17181.1899 -27257.8566 534946.2959 17181.1899 -27257.8566
ENERGY: 2000 172.3119 658.1197 2799.5410 0.0000 -214124.5585 27481.1548 0.0000 0.0000 0.0000 -183013.4311 0.0000 -183013.4311 -183013.4311 0.0000 19347.9277 -3377.7445 534946.2959 19347.9277 -3377.7445
ENERGY: 3000 168.5457 666.4273 2796.2532 0.0000 -217481.0792 28906.2729 0.0000 0.0000 0.0000 -184943.5801 0.0000 -184943.5801 -184943.5801 0.0000 20113.7786 -2966.2486 534946.2959 20113.7786 -2966.2486
ENERGY: 4000 166.1341 665.6740 2785.7312 0.0000 -218810.0479 29480.2778 0.0000 0.0000 0.0000 -185712.2308 0.0000 -185712.2308 -185712.2308 0.0000 20429.5528 -2786.3920 534946.2959 20429.5528 -2786.3920
ENERGY: 5000 166.0642 666.7383 2785.9742 0.0000 -219476.4874 29687.9684 0.0000 0.0000 0.0000 -186169.7423 0.0000 -186169.7423 -186169.7423 0.0000 20533.9778 -2748.5625 534946.2959 20533.9778 -2748.5625
ENERGY: 6000 165.9384 665.8106 2787.4373 0.0000 -219855.3981 29843.0540 0.0000 0.0000 0.0000 -186393.1579 0.0000 -186393.1579 -186393.1579 0.0000 20616.4632 -2702.4504 534946.2959 20616.4632 -2702.4504
