Info: SIMULATION PARAMETERS:
Info: TIMESTEP               2
Info: NUMBER OF STEPS        0
Info: STEPS PER CYCLE        10
Info: PERIODIC CELL BASIS 1  72.449 0 0
Info: PERIODIC CELL BASIS 2  0 93.247 0
Info: PERIODIC CELL BASIS 3  0 0 79.185
Info: PERIODIC CELL CENTER   -0.248 -0.156 -0.047
Info: WRAPPING WATERS AROUND PERIODIC BOUNDARIES ON OUTPUT.
Info: WRAPPING ALL CLUSTERS AROUND PERIODIC BOUNDARIES ON OUTPUT.
Info: FIRST LDB TIMESTEP     50
Info: LAST LDB TIMESTEP     -1
Info: HOM BACKGROUND SCALING 1
Info: PME BACKGROUND SCALING 1
Info: MIN ATOMS PER PATCH    40
Info: INITIAL TEMPERATURE    0
Info: CENTER OF MASS MOVING INITIALLY? NO
Info: DIELECTRIC             1
Info: EXCLUDE                SCALED ONE-FOUR
Info: 1-4 ELECTROSTATICS SCALED BY 0.833333
Info: MODIFIED 1-4 VDW PARAMETERS WILL BE USED
Info: NO DCD TRAJECTORY OUTPUT
Info: NO EXTENDED SYSTEM TRAJECTORY OUTPUT
Info: NO VELOCITY DCD OUTPUT
Info: NO FORCE DCD OUTPUT
Info: OUTPUT FILENAME        ../replicas/rep103/equilibration/eq0
Info: NO RESTART FILE
Info: SWITCHING ACTIVE
Info: SWITCHING ON           10
Info: SWITCHING OFF          12
Info: PAIRLIST DISTANCE      13.5
Info: PAIRLIST SHRINK RATE   0.01
Info: PAIRLIST GROW RATE     0.01
Info: PAIRLIST TRIGGER       0.3
Info: PAIRLISTS PER CYCLE    2
Info: PAIRLISTS ENABLED
Info: MARGIN                 0
Info: HYDROGEN GROUP CUTOFF  2.5
Info: PATCH DIMENSION        16
Info: ENERGY OUTPUT STEPS    500
Info: CROSSTERM ENERGY INCLUDED IN DIHEDRAL
Info: TIMING OUTPUT STEPS    5000
Info: PRESSURE OUTPUT STEPS  500
Info: HARMONIC CONSTRAINTS ACTIVE
Info: HARMONIC CONS EXP      2
Info: HARMONIC CONS SCALING  10
Info: CONJUGATE GRADIENT MINIMIZATION ACTIVE
Info: LINE MINIMIZATION GOAL = 0.001
Info: BABY STEP SIZE = 0.01
Info: TINY STEP SIZE = 1e-06
Info: PARTICLE MESH EWALD (PME) ACTIVE
Info: PME TOLERANCE               1e-06
Info: PME EWALD COEFFICIENT       0.257952
Info: PME INTERPOLATION ORDER     4
Info: PME GRID DIMENSIONS         80 96 80
Info: PME MAXIMUM GRID SPACING    1
Info: FULL ELECTROSTATIC EVALUATION FREQUENCY      2
Info: USING VERLET I (r-RESPA) MTS SCHEME.
Info: C1 SPLITTING OF LONG RANGE ELECTROSTATICS
Info: PLACING ATOMS IN PATCHES BY HYDROGEN GROUPS
Info: RIGID BONDS TO HYDROGEN : ALL
Info:         ERROR TOLERANCE : 1e-05
Info:          MAX ITERATIONS : 100
Info: RIGID WATER USING SETTLE ALGORITHM
Info: RANDOM NUMBER SEED     1503691519
Info: USE HYDROGEN BONDS?    NO
Info: Using AMBER format force field!
Info: AMBER PARM FILE        ../build/complex.top
Info: COORDINATE PDB         ../build/complex.pdb
Info: Exclusions in PARM file will be ignored!
Info: SCNB (VDW SCALING)     2
Info: USING ARITHMETIC MEAN TO COMBINE L-J SIGMA PARAMETERS
Info: SUMMARY OF PARAMETERS:
Info: 71 BONDS
Info: 145 ANGLES
Info: 76 DIHEDRAL
Info: 0 IMPROPER
Info: 0 CROSSTERM
Info: 0 VDW
Info: 190 VDW_PAIRS
Info: 0 NBTHOLE_PAIRS
Info: STRUCTURE SUMMARY:
Info: 49394 ATOMS
Info: 49448 BONDS
Info: 8698 ANGLES
Info: 18780 DIHEDRALS
Info: 0 IMPROPERS
Info: 0 CROSSTERMS
Info: 0 EXCLUSIONS
Info: 2336 CONSTRAINTS
Info: 47058 RIGID BONDS
Info: 101124 DEGREES OF FREEDOM
Info: 17225 HYDROGEN GROUPS
Info: 4 ATOMS IN LARGEST HYDROGEN GROUP
Info: 17225 MIGRATION GROUPS
Info: 4 ATOMS IN LARGEST MIGRATION GROUP
Info: TOTAL MASS = 301478 amu
Info: TOTAL CHARGE = 1.00115e-05 e
Info: MASS DENSITY = 0.935846 g/cm^3
Info: ATOM DENSITY = 0.0923345 atoms/A^3
Info: ADDED 70656 IMPLICIT EXCLUSIONS
Info: NONBONDED TABLE R-SQUARED SPACING: 0.0625
Info: NONBONDED TABLE SIZE: 769 POINTS
Info: REMOVING COM VELOCITY 0 0 0
TCL: Minimizing for 100 steps
ETITLE: TS BOND ANGLE DIHED IMPRP ELECT VDW BOUNDARY MISC KINETIC TOTAL TEMP POTENTIAL TOTAL3 TEMPAVG PRESSURE GPRESSURE VOLUME PRESSAVG GPRESSAVG
ENERGY: 0 155.4176 1012.2698 2855.7272 0.0000 -154496.7912 207729.2052 0.0468 0.0000 0.0000 57255.8754 0.0000 57255.8754 57255.8754 0.0000 116350.2532 86546.1670 534946.2959 116350.2532 86546.1670
ENERGY: 20 304.7570 935.7913 2893.4663 0.0000 -158672.9419 17936.6587 143.9455 0.0000 0.0000 -136458.3230 0.0000 -136458.3230 -136458.3230 0.0000 16523.9379 -239.4568 534946.2959 16523.9379 -239.4568
ENERGY: 40 198.7448 799.5729 2896.9273 0.0000 -162811.4510 16417.9543 221.3030 0.0000 0.0000 -142276.9488 0.0000 -142276.9488 -142276.9488 0.0000 15011.2710 -2135.4689 534946.2959 15011.2710 -2135.4689
ENERGY: 60 130.5283 715.3440 2898.2166 0.0000 -167496.1541 15446.7544 315.2796 0.0000 0.0000 -147990.0314 0.0000 -147990.0314 -147990.0314 0.0000 13793.8843 -3799.3977 534946.2959 13793.8843 -3799.3977
ENERGY: 80 431.2708 765.6303 2904.3787 0.0000 -169937.5259 15121.1527 372.0123 0.0000 0.0000 -150343.0811 0.0000 -150343.0811 -150343.0811 0.0000 13270.3317 -4577.2429 534946.2959 13270.3317 -4577.2429
ENERGY: 100 119.3863 710.0603 2905.2591 0.0000 -171259.7124 14991.7868 387.3614 0.0000 0.0000 -152145.8585 0.0000 -152145.8585 -152145.8585 0.0000 13056.2653 -4908.1723 534946.2959 13056.2653 -4908.1723
TCL: Setting parameter constraintScaling to 5.0
TCL: Minimizing for 100 steps
ETITLE: TS BOND ANGLE DIHED IMPRP ELECT VDW BOUNDARY MISC KINETIC TOTAL TEMP POTENTIAL TOTAL3 TEMPAVG PRESSURE GPRESSURE VOLUME PRESSAVG GPRESSAVG
ENERGY: 100 119.3863 710.0603 2905.2591 0.0000 -171259.7124 14991.7868 193.6807 0.0000 0.0000 -152339.5392 0.0000 -152339.5392 -152339.5392 0.0000 13672.7715 -23021.8187 534946.2959 13672.7715 -23021.8187
ENERGY: 120 108.8857 687.5855 2912.9268 0.0000 -172865.8836 14798.2706 281.1920 0.0000 0.0000 -154077.0229 0.0000 -154077.0229 -154077.0229 0.0000 13218.2541 -4906.0174 534946.2959 13218.2541 -4906.0174
ENERGY: 140 309.4725 708.8766 2913.8025 0.0000 -174236.5433 14731.4878 326.6354 0.0000 0.0000 -155246.2685 0.0000 -155246.2685 -155246.2685 0.0000 12971.5407 -5303.2136 534946.2959 12971.5407 -5303.2136
ENERGY: 160 264.9569 683.0352 2923.1582 0.0000 -176273.6913 14757.2388 382.8278 0.0000 0.0000 -157262.4745 0.0000 -157262.4745 -157262.4745 0.0000 12741.1665 -5736.0436 534946.2959 12741.1665 -5736.0436
ENERGY: 180 269.0780 744.0913 2928.5664 0.0000 -178994.0692 15023.2903 473.2322 0.0000 0.0000 -159555.8109 0.0000 -159555.8109 -159555.8109 0.0000 12521.6742 -6217.0470 534946.2959 12521.6742 -6217.0470
ENERGY: 200 238.7315 694.1174 2941.3517 0.0000 -181555.3762 15586.8469 546.2498 0.0000 0.0000 -161548.0790 0.0000 -161548.0790 -161548.0790 0.0000 12582.6340 -6424.5021 534946.2959 12582.6340 -6424.5021
TCL: Setting parameter constraintScaling to 2.5
TCL: Minimizing for 100 steps
ETITLE: TS BOND ANGLE DIHED IMPRP ELECT VDW BOUNDARY MISC KINETIC TOTAL TEMP POTENTIAL TOTAL3 TEMPAVG PRESSURE GPRESSURE VOLUME PRESSAVG GPRESSAVG
ENERGY: 200 238.7315 694.1174 2941.3517 0.0000 -181555.3762 15586.8469 273.1249 0.0000 0.0000 -161821.2039 0.0000 -161821.2039 -161821.2039 0.0000 13229.5197 -25655.2360 534946.2959 13229.5197 -25655.2360
ENERGY: 220 251.1273 680.0790 2933.0272 0.0000 -182082.8063 15470.5702 338.6860 0.0000 0.0000 -162409.3167 0.0000 -162409.3167 -162409.3167 0.0000 12967.4486 -6095.2370 534946.2959 12967.4486 -6095.2370
ENERGY: 240 139.2220 665.8350 2928.5922 0.0000 -182462.4640 15493.9858 343.6464 0.0000 0.0000 -162891.1827 0.0000 -162891.1827 -162891.1827 0.0000 13034.1410 -6107.9009 534946.2959 13034.1410 -6107.9009
ENERGY: 260 165.0648 683.7169 2921.6437 0.0000 -183940.9532 15800.4074 385.3547 0.0000 0.0000 -163984.7657 0.0000 -163984.7657 -163984.7657 0.0000 13031.9570 -6246.2760 534946.2959 13031.9570 -6246.2760
ENERGY: 280 169.1151 700.9857 2917.6193 0.0000 -185425.0939 16230.0582 454.7530 0.0000 0.0000 -164952.5625 0.0000 -164952.5625 -164952.5625 0.0000 13144.2918 -6338.0117 534946.2959 13144.2918 -6338.0117
ENERGY: 300 126.6672 639.5736 2916.2607 0.0000 -186097.4480 16447.1054 481.3807 0.0000 0.0000 -165486.4604 0.0000 -165486.4604 -165486.4604 0.0000 13208.3847 -6342.3573 534946.2959 13208.3847 -6342.3573
TCL: Setting parameter constraintScaling to 1.25
TCL: Minimizing for 100 steps
ETITLE: TS BOND ANGLE DIHED IMPRP ELECT VDW BOUNDARY MISC KINETIC TOTAL TEMP POTENTIAL TOTAL3 TEMPAVG PRESSURE GPRESSURE VOLUME PRESSAVG GPRESSAVG
ENERGY: 300 126.6672 639.5736 2916.2607 0.0000 -186097.4480 16447.1054 240.6904 0.0000 0.0000 -165727.1507 0.0000 -165727.1507 -165727.1507 0.0000 13656.7481 -26352.6491 534946.2959 13656.7481 -26352.6491
ENERGY: 320 132.2280 624.6041 2911.1456 0.0000 -186668.9646 16581.0587 272.7893 0.0000 0.0000 -166147.1389 0.0000 -166147.1389 -166147.1389 0.0000 13630.2680 -5973.8778 534946.2959 13630.2680 -5973.8778
ENERGY: 340 151.8084 624.9142 2910.7054 0.0000 -187373.5443 16809.8903 296.0167 0.0000 0.0000 -166580.2094 0.0000 -166580.2094 -166580.2094 0.0000 13646.2965 -6011.7773 534946.2959 13646.2965 -6011.7773
ENERGY: 360 179.5195 677.4363 2908.2197 0.0000 -188947.9023 17349.0373 359.9185 0.0000 0.0000 -167473.7710 0.0000 -167473.7710 -167473.7710 0.0000 13871.5062 -6004.7418 534946.2959 13871.5062 -6004.7418
ENERGY: 380 473.3889 697.3775 2909.6020 0.0000 -190783.7122 18086.3415 408.2595 0.0000 0.0000 -168208.7427 0.0000 -168208.7427 -168208.7427 0.0000 14059.1677 -5988.9894 534946.2959 14059.1677 -5988.9894
ENERGY: 400 133.7327 647.2251 2902.2097 0.0000 -190635.4121 17984.0992 399.9810 0.0000 0.0000 -168568.1643 0.0000 -168568.1643 -168568.1643 0.0000 14142.1881 -5924.5473 534946.2959 14142.1881 -5924.5473
TCL: Setting parameter constraintScaling to 0.625
TCL: Minimizing for 100 steps
ETITLE: TS BOND ANGLE DIHED IMPRP ELECT VDW BOUNDARY MISC KINETIC TOTAL TEMP POTENTIAL TOTAL3 TEMPAVG PRESSURE GPRESSURE VOLUME PRESSAVG GPRESSAVG
ENERGY: 400 133.7327 647.2251 2902.2097 0.0000 -190635.4121 17984.0992 199.9905 0.0000 0.0000 -168768.1548 0.0000 -168768.1548 -168768.1548 0.0000 14442.0816 -26628.0939 534946.2959 14442.0816 -26628.0939
ENERGY: 420 154.6637 644.1631 2893.8886 0.0000 -191102.6327 18102.4524 221.2888 0.0000 0.0000 -169086.1762 0.0000 -169086.1762 -169086.1762 0.0000 14437.8444 -5681.8741 534946.2959 14437.8444 -5681.8741
ENERGY: 440 166.5149 640.5323 2891.4694 0.0000 -191649.2836 18272.7079 242.3339 0.0000 0.0000 -169435.7252 0.0000 -169435.7252 -169435.7252 0.0000 14391.1148 -5753.1001 534946.2959 14391.1148 -5753.1001
ENERGY: 460 185.9833 649.0536 2887.3482 0.0000 -193362.6815 18904.5434 296.5928 0.0000 0.0000 -170439.1601 0.0000 -170439.1601 -170439.1601 0.0000 14676.7922 -5680.6998 534946.2959 14676.7922 -5680.6998
ENERGY: 480 160.6492 670.7849 2881.9300 0.0000 -193916.9350 19135.2330 308.8592 0.0000 0.0000 -170759.4788 0.0000 -170759.4788 -170759.4788 0.0000 14831.9690 -5620.5311 534946.2959 14831.9690 -5620.5311
ENERGY: 500 223.1352 639.8822 2880.0338 0.0000 -194382.5913 19324.6453 311.7130 0.0000 0.0000 -171003.1819 0.0000 -171003.1819 -171003.1819 0.0000 14816.9339 -5625.1454 534946.2959 14816.9339 -5625.1454
TCL: Setting parameter constraintScaling to 0.3125
TCL: Minimizing for 100 steps
ETITLE: TS BOND ANGLE DIHED IMPRP ELECT VDW BOUNDARY MISC KINETIC TOTAL TEMP POTENTIAL TOTAL3 TEMPAVG PRESSURE GPRESSURE VOLUME PRESSAVG GPRESSAVG
ENERGY: 500 223.1352 639.8822 2880.0338 0.0000 -194382.5913 19324.6453 155.8565 0.0000 0.0000 -171159.0384 0.0000 -171159.0384 -171159.0384 0.0000 15014.5206 -26938.5414 534946.2959 15014.5206 -26938.5414
ENERGY: 520 148.1290 647.7445 2877.8300 0.0000 -194595.0706 19385.3669 163.4690 0.0000 0.0000 -171372.5313 0.0000 -171372.5313 -171372.5313 0.0000 15116.2539 -5394.2192 534946.2959 15116.2539 -5394.2192
ENERGY: 540 165.8347 647.6332 2872.0359 0.0000 -195074.3756 19551.6838 177.4566 0.0000 0.0000 -171659.7314 0.0000 -171659.7314 -171659.7314 0.0000 15144.8378 -5414.7146 534946.2959 15144.8378 -5414.7146
ENERGY: 560 150.0008 641.1978 2869.2213 0.0000 -195741.0958 19795.4062 194.7675 0.0000 0.0000 -172090.5022 0.0000 -172090.5022 -172090.5022 0.0000 15229.8635 -5391.4155 534946.2959 15229.8635 -5391.4155
ENERGY: 580 169.4768 650.3881 2871.0344 0.0000 -196100.9913 19931.1817 199.4358 0.0000 0.0000 -172279.4744 0.0000 -172279.4744 -172279.4744 0.0000 15276.9692 -5373.1633 534946.2959 15276.9692 -5373.1633
ENERGY: 600 161.7797 651.9296 2866.0945 0.0000 -197358.0403 20433.6887 218.0853 0.0000 0.0000 -173026.4626 0.0000 -173026.4626 -173026.4626 0.0000 15537.5896 -5274.3811 534946.2959 15537.5896 -5274.3811
TCL: Setting parameter constraintScaling to 0.15625
TCL: Minimizing for 100 steps
ETITLE: TS BOND ANGLE DIHED IMPRP ELECT VDW BOUNDARY MISC KINETIC TOTAL TEMP POTENTIAL TOTAL3 TEMPAVG PRESSURE GPRESSURE VOLUME PRESSAVG GPRESSAVG
ENERGY: 600 161.7797 651.9296 2866.0945 0.0000 -197358.0403 20433.6887 109.0426 0.0000 0.0000 -173135.5052 0.0000 -173135.5052 -173135.5052 0.0000 15659.0939 -26997.4980 534946.2959 15659.0939 -26997.4980
ENERGY: 620 501.3944 765.7785 2886.2334 0.0000 -197954.4508 20640.4750 125.1502 0.0000 0.0000 -173035.4192 0.0000 -173035.4192 -173035.4192 0.0000 15641.9351 -5234.9223 534946.2959 15641.9351 -5234.9223
ENERGY: 640 154.4813 652.8066 2857.4522 0.0000 -198154.7864 20703.4044 127.6802 0.0000 0.0000 -173658.9617 0.0000 -173658.9617 -173658.9617 0.0000 15746.8493 -5163.0205 534946.2959 15746.8493 -5163.0205
ENERGY: 660 160.0821 652.3113 2855.1474 0.0000 -198427.5630 20799.6656 128.1526 0.0000 0.0000 -173832.2041 0.0000 -173832.2041 -173832.2041 0.0000 15806.6987 -5136.8222 534946.2959 15806.6987 -5136.8222
ENERGY: 680 175.2327 662.8332 2857.1616 0.0000 -198670.3425 20895.7359 130.5292 0.0000 0.0000 -173948.8499 0.0000 -173948.8499 -173948.8499 0.0000 15835.5561 -5119.1535 534946.2959 15835.5561 -5119.1535
ENERGY: 700 196.4434 678.4458 2852.2901 0.0000 -200089.2559 21475.2180 149.5304 0.0000 0.0000 -174737.3282 0.0000 -174737.3282 -174737.3282 0.0000 16129.9363 -5016.9305 534946.2959 16129.9363 -5016.9305
TCL: Setting parameter constraintScaling to 0.078125
TCL: Minimizing for 100 steps
ETITLE: TS BOND ANGLE DIHED IMPRP ELECT VDW BOUNDARY MISC KINETIC TOTAL TEMP POTENTIAL TOTAL3 TEMPAVG PRESSURE GPRESSURE VOLUME PRESSAVG GPRESSAVG
ENERGY: 700 196.4434 678.4458 2852.2901 0.0000 -200089.2559 21475.2180 74.7652 0.0000 0.0000 -174812.0934 0.0000 -174812.0934 -174812.0934 0.0000 16203.7676 -27106.9052 534946.2959 16203.7676 -27106.9052
ENERGY: 720 154.4937 649.5311 2842.9536 0.0000 -200225.8780 21504.6703 77.0651 0.0000 0.0000 -174997.1642 0.0000 -174997.1642 -174997.1642 0.0000 16214.4969 -4938.1760 534946.2959 16214.4969 -4938.1760
ENERGY: 740 164.7126 650.7252 2838.1598 0.0000 -200521.4857 21605.4044 81.5496 0.0000 0.0000 -175180.9341 0.0000 -175180.9341 -175180.9341 0.0000 16228.1240 -4951.0856 534946.2959 16228.1240 -4951.0856
ENERGY: 760 161.4214 652.0270 2836.1095 0.0000 -200884.6499 21733.1608 85.7063 0.0000 0.0000 -175416.2250 0.0000 -175416.2250 -175416.2250 0.0000 16274.2285 -4942.3062 534946.2959 16274.2285 -4942.3062
ENERGY: 780 179.3716 655.9813 2837.7624 0.0000 -201277.9538 21882.6339 86.5141 0.0000 0.0000 -175635.6905 0.0000 -175635.6905 -175635.6905 0.0000 16371.5034 -4893.8730 534946.2959 16371.5034 -4893.8730
ENERGY: 800 158.1565 656.3299 2840.9500 0.0000 -201800.8530 22108.9161 89.4645 0.0000 0.0000 -175947.0359 0.0000 -175947.0359 -175947.0359 0.0000 16510.6737 -4818.1791 534946.2959 16510.6737 -4818.1791
TCL: Setting parameter constraintScaling to 0.0390625
TCL: Minimizing for 100 steps
ETITLE: TS BOND ANGLE DIHED IMPRP ELECT VDW BOUNDARY MISC KINETIC TOTAL TEMP POTENTIAL TOTAL3 TEMPAVG PRESSURE GPRESSURE VOLUME PRESSAVG GPRESSAVG
ENERGY: 800 158.1565 656.3299 2840.9500 0.0000 -201800.8530 22108.9161 44.7323 0.0000 0.0000 -175991.7682 0.0000 -175991.7682 -175991.7682 0.0000 16551.7227 -27176.7278 534946.2959 16551.7227 -27176.7278
ENERGY: 820 170.2521 660.9813 2830.6535 0.0000 -202000.3212 22162.3772 47.1386 0.0000 0.0000 -176128.9185 0.0000 -176128.9185 -176128.9185 0.0000 16534.4439 -4815.7497 534946.2959 16534.4439 -4815.7497
ENERGY: 840 171.2443 666.1964 2828.3561 0.0000 -202244.0321 22252.9792 49.0167 0.0000 0.0000 -176276.2395 0.0000 -176276.2395 -176276.2395 0.0000 16569.9542 -4810.9107 534946.2959 16569.9542 -4810.9107
ENERGY: 860 171.0350 657.7388 2827.1331 0.0000 -202437.6949 22326.7310 50.1837 0.0000 0.0000 -176404.8733 0.0000 -176404.8733 -176404.8733 0.0000 16610.2039 -4792.6952 534946.2959 16610.2039 -4792.6952
ENERGY: 880 183.6733 677.5979 2829.9779 0.0000 -202785.2042 22475.4966 51.1621 0.0000 0.0000 -176567.2964 0.0000 -176567.2964 -176567.2964 0.0000 16693.6197 -4747.7868 534946.2959 16693.6197 -4747.7868
ENERGY: 900 171.4273 656.9738 2832.5642 0.0000 -203391.4829 22752.5409 53.1409 0.0000 0.0000 -176924.8358 0.0000 -176924.8358 -176924.8358 0.0000 16860.4735 -4651.4038 534946.2959 16860.4735 -4651.4038
TCL: Setting parameter constraintScaling to 0.01953125
TCL: Minimizing for 100 steps
ETITLE: TS BOND ANGLE DIHED IMPRP ELECT VDW BOUNDARY MISC KINETIC TOTAL TEMP POTENTIAL TOTAL3 TEMPAVG PRESSURE GPRESSURE VOLUME PRESSAVG GPRESSAVG
ENERGY: 900 171.4273 656.9738 2832.5642 0.0000 -203391.4829 22752.5409 26.5704 0.0000 0.0000 -176951.4062 0.0000 -176951.4062 -176951.4062 0.0000 16883.3135 -27223.8413 534946.2959 16883.3135 -27223.8413
ENERGY: 920 161.0991 657.3032 2822.5788 0.0000 -203521.7044 22781.5631 27.3645 0.0000 0.0000 -177071.7957 0.0000 -177071.7957 -177071.7957 0.0000 16885.7710 -4646.7052 534946.2959 16885.7710 -4646.7052
ENERGY: 940 181.8201 672.0158 2818.5603 0.0000 -203860.5036 22925.8028 29.1482 0.0000 0.0000 -177233.1564 0.0000 -177233.1564 -177233.1564 0.0000 16919.2547 -4651.0568 534946.2959 16919.2547 -4651.0568
ENERGY: 960 169.7843 667.1715 2817.4881 0.0000 -204072.7291 23013.5086 29.8961 0.0000 0.0000 -177374.8804 0.0000 -177374.8804 -177374.8804 0.0000 16961.4197 -4631.2842 534946.2959 16961.4197 -4631.2842
ENERGY: 980 218.1457 689.1607 2823.3236 0.0000 -204415.4703 23175.7590 29.6460 0.0000 0.0000 -177479.4353 0.0000 -177479.4353 -177479.4353 0.0000 17106.2826 -4533.7879 534946.2959 17106.2826 -4533.7879
ENERGY: 1000 173.4189 666.1725 2831.9206 0.0000 -204798.5027 23371.5605 30.5552 0.0000 0.0000 -177724.8750 0.0000 -177724.8750 -177724.8750 0.0000 17202.3822 -4476.7417 534946.2959 17202.3822 -4476.7417
TCL: Setting parameter constraintScaling to 0
TCL: Minimizing for 5000 steps
ETITLE: TS BOND ANGLE DIHED IMPRP ELECT VDW BOUNDARY MISC KINETIC TOTAL TEMP POTENTIAL TOTAL3 TEMPAVG PRESSURE GPRESSURE VOLUME PRESSAVG GPRESSAVG
ENERGY: 1000 173.4189 666.1725 2831.9206 0.0000 -204798.5027 23371.5605 0.0000 0.0000 0.0000 -177755.4303 0.0000 -177755.4303 -177755.4303 0.0000 17227.5305 -27219.8063 534946.2959 17227.5305 -27219.8063
ENERGY: 2000 169.1237 658.1103 2798.4433 0.0000 -214757.1770 27735.6311 0.0000 0.0000 0.0000 -183395.8687 0.0000 -183395.8687 -183395.8687 0.0000 19494.4548 -3308.3495 534946.2959 19494.4548 -3308.3495
ENERGY: 3000 170.1138 664.6984 2793.7531 0.0000 -217435.3007 28905.3269 0.0000 0.0000 0.0000 -184901.4085 0.0000 -184901.4085 -184901.4085 0.0000 20124.6666 -2954.8514 534946.2959 20124.6666 -2954.8514
ENERGY: 4000 166.2895 664.2889 2790.8838 0.0000 -218642.8372 29329.5320 0.0000 0.0000 0.0000 -185691.8431 0.0000 -185691.8431 -185691.8431 0.0000 20352.6100 -2860.1428 534946.2959 20352.6100 -2860.1428
ENERGY: 5000 165.3116 662.2349 2790.4493 0.0000 -219361.5838 29628.2172 0.0000 0.0000 0.0000 -186115.3708 0.0000 -186115.3708 -186115.3708 0.0000 20510.0017 -2780.9163 534946.2959 20510.0017 -2780.9163
ENERGY: 6000 166.1661 666.2758 2788.2565 0.0000 -219723.6048 29737.7765 0.0000 0.0000 0.0000 -186365.1299 0.0000 -186365.1299 -186365.1299 0.0000 20565.6313 -2756.4183 534946.2959 20565.6313 -2756.4183
