Info: SIMULATION PARAMETERS:
Info: TIMESTEP               2
Info: NUMBER OF STEPS        0
Info: STEPS PER CYCLE        10
Info: PERIODIC CELL BASIS 1  72.449 0 0
Info: PERIODIC CELL BASIS 2  0 93.247 0
Info: PERIODIC CELL BASIS 3  0 0 79.185
Info: PERIODIC CELL CENTER   -0.248 -0.156 -0.047
Info: WRAPPING WATERS AROUND PERIODIC BOUNDARIES ON OUTPUT.
Info: WRAPPING ALL CLUSTERS AROUND PERIODIC BOUNDARIES ON OUTPUT.
Info: FIRST LDB TIMESTEP     50
Info: LAST LDB TIMESTEP     -1
Info: HOM BACKGROUND SCALING 1
Info: PME BACKGROUND SCALING 1
Info: MIN ATOMS PER PATCH    40
Info: INITIAL TEMPERATURE    0
Info: CENTER OF MASS MOVING INITIALLY? NO
Info: DIELECTRIC             1
Info: EXCLUDE                SCALED ONE-FOUR
Info: 1-4 ELECTROSTATICS SCALED BY 0.833333
Info: MODIFIED 1-4 VDW PARAMETERS WILL BE USED
Info: NO DCD TRAJECTORY OUTPUT
Info: NO EXTENDED SYSTEM TRAJECTORY OUTPUT
Info: NO VELOCITY DCD OUTPUT
Info: NO FORCE DCD OUTPUT
Info: OUTPUT FILENAME        ../replicas/rep92/equilibration/eq0
Info: NO RESTART FILE
Info: SWITCHING ACTIVE
Info: SWITCHING ON           10
Info: SWITCHING OFF          12
Info: PAIRLIST DISTANCE      13.5
Info: PAIRLIST SHRINK RATE   0.01
Info: PAIRLIST GROW RATE     0.01
Info: PAIRLIST TRIGGER       0.3
Info: PAIRLISTS PER CYCLE    2
Info: PAIRLISTS ENABLED
Info: MARGIN                 0
Info: HYDROGEN GROUP CUTOFF  2.5
Info: PATCH DIMENSION        16
Info: ENERGY OUTPUT STEPS    500
Info: CROSSTERM ENERGY INCLUDED IN DIHEDRAL
Info: TIMING OUTPUT STEPS    5000
Info: PRESSURE OUTPUT STEPS  500
Info: HARMONIC CONSTRAINTS ACTIVE
Info: HARMONIC CONS EXP      2
Info: HARMONIC CONS SCALING  10
Info: CONJUGATE GRADIENT MINIMIZATION ACTIVE
Info: LINE MINIMIZATION GOAL = 0.001
Info: BABY STEP SIZE = 0.01
Info: TINY STEP SIZE = 1e-06
Info: PARTICLE MESH EWALD (PME) ACTIVE
Info: PME TOLERANCE               1e-06
Info: PME EWALD COEFFICIENT       0.257952
Info: PME INTERPOLATION ORDER     4
Info: PME GRID DIMENSIONS         80 96 80
Info: PME MAXIMUM GRID SPACING    1
Info: FULL ELECTROSTATIC EVALUATION FREQUENCY      2
Info: USING VERLET I (r-RESPA) MTS SCHEME.
Info: C1 SPLITTING OF LONG RANGE ELECTROSTATICS
Info: PLACING ATOMS IN PATCHES BY HYDROGEN GROUPS
Info: RIGID BONDS TO HYDROGEN : ALL
Info:         ERROR TOLERANCE : 1e-05
Info:          MAX ITERATIONS : 100
Info: RIGID WATER USING SETTLE ALGORITHM
Info: RANDOM NUMBER SEED     1503690981
Info: USE HYDROGEN BONDS?    NO
Info: Using AMBER format force field!
Info: AMBER PARM FILE        ../build/complex.top
Info: COORDINATE PDB         ../build/complex.pdb
Info: Exclusions in PARM file will be ignored!
Info: SCNB (VDW SCALING)     2
Info: USING ARITHMETIC MEAN TO COMBINE L-J SIGMA PARAMETERS
Info: SUMMARY OF PARAMETERS:
Info: 71 BONDS
Info: 145 ANGLES
Info: 76 DIHEDRAL
Info: 0 IMPROPER
Info: 0 CROSSTERM
Info: 0 VDW
Info: 190 VDW_PAIRS
Info: 0 NBTHOLE_PAIRS
Info: STRUCTURE SUMMARY:
Info: 49394 ATOMS
Info: 49448 BONDS
Info: 8698 ANGLES
Info: 18780 DIHEDRALS
Info: 0 IMPROPERS
Info: 0 CROSSTERMS
Info: 0 EXCLUSIONS
Info: 2336 CONSTRAINTS
Info: 47058 RIGID BONDS
Info: 101124 DEGREES OF FREEDOM
Info: 17225 HYDROGEN GROUPS
Info: 4 ATOMS IN LARGEST HYDROGEN GROUP
Info: 17225 MIGRATION GROUPS
Info: 4 ATOMS IN LARGEST MIGRATION GROUP
Info: TOTAL MASS = 301478 amu
Info: TOTAL CHARGE = 1.00115e-05 e
Info: MASS DENSITY = 0.935846 g/cm^3
Info: ATOM DENSITY = 0.0923345 atoms/A^3
Info: ADDED 70656 IMPLICIT EXCLUSIONS
Info: NONBONDED TABLE R-SQUARED SPACING: 0.0625
Info: NONBONDED TABLE SIZE: 769 POINTS
Info: REMOVING COM VELOCITY 0 0 0
TCL: Minimizing for 100 steps
ETITLE: TS BOND ANGLE DIHED IMPRP ELECT VDW BOUNDARY MISC KINETIC TOTAL TEMP POTENTIAL TOTAL3 TEMPAVG PRESSURE GPRESSURE VOLUME PRESSAVG GPRESSAVG
ENERGY: 0 155.4176 1012.2698 2855.7272 0.0000 -154496.7912 207729.2052 0.0468 0.0000 0.0000 57255.8754 0.0000 57255.8754 57255.8754 0.0000 116350.2532 86546.1670 534946.2959 116350.2532 86546.1670
ENERGY: 20 304.7542 935.7911 2893.4663 0.0000 -158672.9401 17936.6597 143.9454 0.0000 0.0000 -136458.3234 0.0000 -136458.3234 -136458.3234 0.0000 16523.9391 -239.4554 534946.2959 16523.9391 -239.4554
ENERGY: 40 198.7456 799.5729 2896.9273 0.0000 -162811.4543 16417.9533 221.3031 0.0000 0.0000 -142276.9522 0.0000 -142276.9522 -142276.9522 0.0000 15011.2699 -2135.4703 534946.2959 15011.2699 -2135.4703
ENERGY: 60 130.5281 715.3439 2898.2166 0.0000 -167496.1604 15446.7534 315.2797 0.0000 0.0000 -147990.0387 0.0000 -147990.0387 -147990.0387 0.0000 13793.8829 -3799.3997 534946.2959 13793.8829 -3799.3997
ENERGY: 80 431.2741 765.6309 2904.3787 0.0000 -169937.5388 15121.1513 372.0124 0.0000 0.0000 -150343.0914 0.0000 -150343.0914 -150343.0914 0.0000 13270.3284 -4577.2485 534946.2959 13270.3284 -4577.2485
ENERGY: 100 119.3845 710.0599 2905.2590 0.0000 -171259.7116 14991.7872 387.3613 0.0000 0.0000 -152145.8597 0.0000 -152145.8597 -152145.8597 0.0000 13056.2656 -4908.1720 534946.2959 13056.2656 -4908.1720
TCL: Setting parameter constraintScaling to 5.0
TCL: Minimizing for 100 steps
ETITLE: TS BOND ANGLE DIHED IMPRP ELECT VDW BOUNDARY MISC KINETIC TOTAL TEMP POTENTIAL TOTAL3 TEMPAVG PRESSURE GPRESSURE VOLUME PRESSAVG GPRESSAVG
ENERGY: 100 119.3845 710.0599 2905.2590 0.0000 -171259.7116 14991.7872 193.6806 0.0000 0.0000 -152339.5404 0.0000 -152339.5404 -152339.5404 0.0000 13672.7717 -23021.8180 534946.2959 13672.7717 -23021.8180
ENERGY: 120 108.8788 687.5820 2912.9264 0.0000 -172865.8742 14798.2713 281.1909 0.0000 0.0000 -154077.0248 0.0000 -154077.0248 -154077.0248 0.0000 13218.2577 -4906.0129 534946.2959 13218.2577 -4906.0129
ENERGY: 140 309.3620 708.8532 2913.8025 0.0000 -174236.8444 14731.4722 326.6448 0.0000 0.0000 -155246.7097 0.0000 -155246.7097 -155246.7097 0.0000 12971.5100 -5303.2817 534946.2959 12971.5100 -5303.2817
ENERGY: 160 265.6242 683.2272 2923.1965 0.0000 -176277.5096 14757.4639 382.9711 0.0000 0.0000 -157265.0268 0.0000 -157265.0268 -157265.0268 0.0000 12740.6828 -5743.5554 534946.2959 12740.6828 -5743.5554
ENERGY: 180 268.6437 744.1035 2928.5664 0.0000 -178997.0794 15023.7944 473.3900 0.0000 0.0000 -159558.5814 0.0000 -159558.5814 -159558.5814 0.0000 12521.5157 -6224.0951 534946.2959 12521.5157 -6224.0951
ENERGY: 200 239.1591 694.0594 2941.3795 0.0000 -181557.5299 15587.3485 546.2906 0.0000 0.0000 -161549.2928 0.0000 -161549.2928 -161549.2928 0.0000 12582.6700 -6431.0175 534946.2959 12582.6700 -6431.0175
TCL: Setting parameter constraintScaling to 2.5
TCL: Minimizing for 100 steps
ETITLE: TS BOND ANGLE DIHED IMPRP ELECT VDW BOUNDARY MISC KINETIC TOTAL TEMP POTENTIAL TOTAL3 TEMPAVG PRESSURE GPRESSURE VOLUME PRESSAVG GPRESSAVG
ENERGY: 200 239.1591 694.0594 2941.3795 0.0000 -181557.5299 15587.3485 273.1453 0.0000 0.0000 -161822.4381 0.0000 -161822.4381 -161822.4381 0.0000 13229.6080 -25661.9286 534946.2959 13229.6080 -25661.9286
ENERGY: 220 245.6190 676.9631 2932.9970 0.0000 -182075.0863 15472.6187 337.2740 0.0000 0.0000 -162409.6145 0.0000 -162409.6145 -162409.6145 0.0000 12973.1674 -6094.8962 534946.2959 12973.1674 -6094.8962
ENERGY: 240 154.2398 693.7739 2928.7183 0.0000 -182682.1415 15529.8207 347.0867 0.0000 0.0000 -163028.5020 0.0000 -163028.5020 -163028.5020 0.0000 13033.3937 -6138.3179 534946.2959 13033.3937 -6138.3179
ENERGY: 260 178.8064 683.3208 2920.1896 0.0000 -184291.7424 15886.1678 399.1138 0.0000 0.0000 -164224.1440 0.0000 -164224.1440 -164224.1440 0.0000 13053.6556 -6281.7275 534946.2959 13053.6556 -6281.7275
ENERGY: 280 169.1939 700.8166 2917.5811 0.0000 -185420.7272 16227.6193 454.9867 0.0000 0.0000 -164950.5296 0.0000 -164950.5296 -164950.5296 0.0000 13142.5345 -6345.8349 534946.2959 13142.5345 -6345.8349
ENERGY: 300 126.6851 639.5057 2916.2424 0.0000 -186091.9129 16444.4457 481.3882 0.0000 0.0000 -165483.6457 0.0000 -165483.6457 -165483.6457 0.0000 13207.0356 -6349.6879 534946.2959 13207.0356 -6349.6879
TCL: Setting parameter constraintScaling to 1.25
TCL: Minimizing for 100 steps
ETITLE: TS BOND ANGLE DIHED IMPRP ELECT VDW BOUNDARY MISC KINETIC TOTAL TEMP POTENTIAL TOTAL3 TEMPAVG PRESSURE GPRESSURE VOLUME PRESSAVG GPRESSAVG
ENERGY: 300 126.6851 639.5057 2916.2424 0.0000 -186091.9129 16444.4457 240.6941 0.0000 0.0000 -165724.3398 0.0000 -165724.3398 -165724.3398 0.0000 13655.3743 -26359.3723 534946.2959 13655.3743 -26359.3723
ENERGY: 320 266.2302 657.3578 2911.4724 0.0000 -186849.2009 16632.3257 286.4788 0.0000 0.0000 -166095.3361 0.0000 -166095.3361 -166095.3361 0.0000 13611.2592 -6015.4831 534946.2959 13611.2592 -6015.4831
ENERGY: 340 243.3168 646.5456 2912.3271 0.0000 -187596.2433 16884.9699 305.2122 0.0000 0.0000 -166603.8717 0.0000 -166603.8717 -166603.8717 0.0000 13614.6768 -6057.8395 534946.2959 13614.6768 -6057.8395
ENERGY: 360 180.0733 671.1382 2908.1461 0.0000 -188751.2154 17284.2821 344.6571 0.0000 0.0000 -167362.9185 0.0000 -167362.9185 -167362.9185 0.0000 13867.1487 -6001.3134 534946.2959 13867.1487 -6001.3134
ENERGY: 380 196.2826 647.3723 2901.1011 0.0000 -190391.1318 17927.3902 400.2687 0.0000 0.0000 -168318.7168 0.0000 -168318.7168 -168318.7168 0.0000 14024.7640 -5985.1319 534946.2959 14024.7640 -5985.1319
ENERGY: 400 136.1358 655.6029 2902.6463 0.0000 -191148.7675 18197.8310 413.2481 0.0000 0.0000 -168843.3034 0.0000 -168843.3034 -168843.3034 0.0000 14243.2747 -5891.7745 534946.2959 14243.2747 -5891.7745
TCL: Setting parameter constraintScaling to 0.625
TCL: Minimizing for 100 steps
ETITLE: TS BOND ANGLE DIHED IMPRP ELECT VDW BOUNDARY MISC KINETIC TOTAL TEMP POTENTIAL TOTAL3 TEMPAVG PRESSURE GPRESSURE VOLUME PRESSAVG GPRESSAVG
ENERGY: 400 136.1358 655.6029 2902.6463 0.0000 -191148.7675 18197.8310 206.6240 0.0000 0.0000 -169049.9275 0.0000 -169049.9275 -169049.9275 0.0000 14548.9795 -26651.3655 534946.2959 14548.9795 -26651.3655
ENERGY: 420 140.7849 635.8639 2892.5278 0.0000 -191529.9621 18288.5546 226.3150 0.0000 0.0000 -169345.9159 0.0000 -169345.9159 -169345.9159 0.0000 14498.1519 -5664.8677 534946.2959 14498.1519 -5664.8677
ENERGY: 440 376.0977 683.0234 2894.7389 0.0000 -192437.5961 18570.7042 263.8409 0.0000 0.0000 -169649.1910 0.0000 -169649.1910 -169649.1910 0.0000 14439.7092 -5782.7937 534946.2959 14439.7092 -5782.7937
ENERGY: 460 163.1068 635.4912 2882.0382 0.0000 -193301.3060 18883.9164 288.9352 0.0000 0.0000 -170447.8182 0.0000 -170447.8182 -170447.8182 0.0000 14669.6942 -5684.2919 534946.2959 14669.6942 -5684.2919
ENERGY: 480 215.5315 671.2326 2882.1605 0.0000 -193690.3617 19038.2759 294.8978 0.0000 0.0000 -170588.2634 0.0000 -170588.2634 -170588.2634 0.0000 14723.8621 -5668.1495 534946.2959 14723.8621 -5668.1495
ENERGY: 500 183.2679 645.6285 2879.5095 0.0000 -194168.9551 19236.7064 297.9578 0.0000 0.0000 -170925.8850 0.0000 -170925.8850 -170925.8850 0.0000 14878.9544 -5588.0380 534946.2959 14878.9544 -5588.0380
TCL: Setting parameter constraintScaling to 0.3125
TCL: Minimizing for 100 steps
ETITLE: TS BOND ANGLE DIHED IMPRP ELECT VDW BOUNDARY MISC KINETIC TOTAL TEMP POTENTIAL TOTAL3 TEMPAVG PRESSURE GPRESSURE VOLUME PRESSAVG GPRESSAVG
ENERGY: 500 183.2679 645.6285 2879.5095 0.0000 -194168.9551 19236.7064 148.9789 0.0000 0.0000 -171074.8639 0.0000 -171074.8639 -171074.8639 0.0000 15071.0853 -26834.4725 534946.2959 15071.0853 -26834.4725
ENERGY: 520 153.2675 632.3457 2877.5812 0.0000 -194433.1383 19319.0723 158.8693 0.0000 0.0000 -171292.0024 0.0000 -171292.0024 -171292.0024 0.0000 15029.5354 -5437.5963 534946.2959 15029.5354 -5437.5963
ENERGY: 540 212.1419 702.3872 2877.0636 0.0000 -195016.3849 19521.3011 175.5977 0.0000 0.0000 -171527.8933 0.0000 -171527.8933 -171527.8933 0.0000 15120.4791 -5433.2966 534946.2959 15120.4791 -5433.2966
ENERGY: 560 188.4643 667.3814 2874.4457 0.0000 -195643.8056 19744.2572 195.3287 0.0000 0.0000 -171973.9283 0.0000 -171973.9283 -171973.9283 0.0000 15163.9068 -5441.5592 534946.2959 15163.9068 -5441.5592
ENERGY: 580 154.5229 650.2801 2867.6063 0.0000 -196399.3414 20046.0619 212.6728 0.0000 0.0000 -172468.1974 0.0000 -172468.1974 -172468.1974 0.0000 15333.0767 -5374.4645 534946.2959 15333.0767 -5374.4645
ENERGY: 600 175.8319 678.3095 2868.9166 0.0000 -196771.3402 20197.2820 212.9522 0.0000 0.0000 -172638.0479 0.0000 -172638.0479 -172638.0479 0.0000 15405.2032 -5340.0223 534946.2959 15405.2032 -5340.0223
TCL: Setting parameter constraintScaling to 0.15625
TCL: Minimizing for 100 steps
ETITLE: TS BOND ANGLE DIHED IMPRP ELECT VDW BOUNDARY MISC KINETIC TOTAL TEMP POTENTIAL TOTAL3 TEMPAVG PRESSURE GPRESSURE VOLUME PRESSAVG GPRESSAVG
ENERGY: 600 175.8319 678.3095 2868.9166 0.0000 -196771.3402 20197.2820 106.4761 0.0000 0.0000 -172744.5240 0.0000 -172744.5240 -172744.5240 0.0000 15524.1690 -26998.0752 534946.2959 15524.1690 -26998.0752
ENERGY: 620 282.4144 714.4206 2872.8230 0.0000 -197146.0458 20326.3037 113.5980 0.0000 0.0000 -172836.4861 0.0000 -172836.4861 -172836.4861 0.0000 15580.5840 -5215.4629 534946.2959 15580.5840 -5215.4629
ENERGY: 640 177.6643 654.3811 2864.5596 0.0000 -197352.0321 20396.8392 116.8406 0.0000 0.0000 -173141.7473 0.0000 -173141.7473 -173141.7473 0.0000 15581.3388 -5230.1816 534946.2959 15581.3388 -5230.1816
ENERGY: 660 192.9413 680.4270 2860.0314 0.0000 -198305.8946 20753.6786 132.3259 0.0000 0.0000 -173686.4904 0.0000 -173686.4904 -173686.4904 0.0000 15798.4949 -5155.7645 534946.2959 15798.4949 -5155.7645
ENERGY: 680 166.8595 643.3044 2854.7927 0.0000 -198403.6359 20795.7343 133.2747 0.0000 0.0000 -173809.6702 0.0000 -173809.6702 -173809.6702 0.0000 15721.3836 -5188.6941 534946.2959 15721.3836 -5188.6941
ENERGY: 700 197.3523 683.5464 2860.8174 0.0000 -199093.5234 21059.0583 138.0720 0.0000 0.0000 -174154.6770 0.0000 -174154.6770 -174154.6770 0.0000 15973.8252 -5061.8211 534946.2959 15973.8252 -5061.8211
TCL: Setting parameter constraintScaling to 0.078125
TCL: Minimizing for 100 steps
ETITLE: TS BOND ANGLE DIHED IMPRP ELECT VDW BOUNDARY MISC KINETIC TOTAL TEMP POTENTIAL TOTAL3 TEMPAVG PRESSURE GPRESSURE VOLUME PRESSAVG GPRESSAVG
ENERGY: 700 197.3523 683.5464 2860.8174 0.0000 -199093.5234 21059.0583 69.0360 0.0000 0.0000 -174223.7130 0.0000 -174223.7130 -174223.7130 0.0000 16043.6176 -27031.3601 534946.2959 16043.6176 -27031.3601
ENERGY: 720 166.0887 639.4141 2848.8409 0.0000 -199208.9247 21091.9633 71.1855 0.0000 0.0000 -174391.4322 0.0000 -174391.4322 -174391.4322 0.0000 15948.4315 -5066.1206 534946.2959 15948.4315 -5066.1206
ENERGY: 740 190.7301 697.8643 2851.0737 0.0000 -199698.0197 21261.2380 77.4207 0.0000 0.0000 -174619.6928 0.0000 -174619.6928 -174619.6928 0.0000 16078.3246 -5030.3745 534946.2959 16078.3246 -5030.3745
ENERGY: 760 169.5708 661.5829 2839.9097 0.0000 -200494.0740 21570.6584 86.7116 0.0000 0.0000 -175165.6406 0.0000 -175165.6406 -175165.6406 0.0000 16151.9807 -5014.2519 534946.2959 16151.9807 -5014.2519
ENERGY: 780 177.7483 669.2911 2840.2230 0.0000 -200694.2170 21646.6325 85.6781 0.0000 0.0000 -175274.6440 0.0000 -175274.6440 -175274.6440 0.0000 16215.1019 -4974.0778 534946.2959 16215.1019 -4974.0778
ENERGY: 800 153.2047 650.9819 2840.2678 0.0000 -201204.6586 21873.6783 86.2587 0.0000 0.0000 -175600.2671 0.0000 -175600.2671 -175600.2671 0.0000 16410.0429 -4865.2610 534946.2959 16410.0429 -4865.2610
TCL: Setting parameter constraintScaling to 0.0390625
TCL: Minimizing for 100 steps
ETITLE: TS BOND ANGLE DIHED IMPRP ELECT VDW BOUNDARY MISC KINETIC TOTAL TEMP POTENTIAL TOTAL3 TEMPAVG PRESSURE GPRESSURE VOLUME PRESSAVG GPRESSAVG
ENERGY: 800 153.2047 650.9819 2840.2678 0.0000 -201204.6586 21873.6783 43.1294 0.0000 0.0000 -175643.3965 0.0000 -175643.3965 -175643.3965 0.0000 16450.3562 -27134.6521 534946.2959 16450.3562 -27134.6521
ENERGY: 820 162.6873 644.7382 2831.3674 0.0000 -201404.5656 21906.0857 45.6708 0.0000 0.0000 -175814.0161 0.0000 -175814.0161 -175814.0161 0.0000 16406.7099 -4882.1920 534946.2959 16406.7099 -4882.1920
ENERGY: 840 175.6141 661.2537 2830.4367 0.0000 -201763.3156 22052.8195 48.3844 0.0000 0.0000 -175994.8071 0.0000 -175994.8071 -175994.8071 0.0000 16444.9339 -4880.2330 534946.2959 16444.9339 -4880.2330
ENERGY: 860 165.8732 657.6155 2827.6748 0.0000 -202184.5226 22219.8691 50.4831 0.0000 0.0000 -176263.0071 0.0000 -176263.0071 -176263.0071 0.0000 16550.1489 -4827.4310 534946.2959 16550.1489 -4827.4310
ENERGY: 880 167.1563 658.8995 2825.8944 0.0000 -202316.3848 22264.3110 50.7008 0.0000 0.0000 -176349.4229 0.0000 -176349.4229 -176349.4229 0.0000 16575.1507 -4824.8421 534946.2959 16575.1507 -4824.8421
ENERGY: 900 185.5904 661.8010 2826.1667 0.0000 -202709.5695 22429.9565 51.7095 0.0000 0.0000 -176554.3454 0.0000 -176554.3454 -176554.3454 0.0000 16659.5845 -4778.5024 534946.2959 16659.5845 -4778.5024
TCL: Setting parameter constraintScaling to 0.01953125
TCL: Minimizing for 100 steps
ETITLE: TS BOND ANGLE DIHED IMPRP ELECT VDW BOUNDARY MISC KINETIC TOTAL TEMP POTENTIAL TOTAL3 TEMPAVG PRESSURE GPRESSURE VOLUME PRESSAVG GPRESSAVG
ENERGY: 900 185.5904 661.8010 2826.1667 0.0000 -202709.5695 22429.9565 25.8548 0.0000 0.0000 -176580.2002 0.0000 -176580.2002 -176580.2002 0.0000 16682.0729 -27262.8459 534946.2959 16682.0729 -27262.8459
ENERGY: 920 160.4362 652.7457 2823.3675 0.0000 -202799.0467 22459.5476 26.2436 0.0000 0.0000 -176676.7061 0.0000 -176676.7061 -176676.7061 0.0000 16706.9575 -4746.6415 534946.2959 16706.9575 -4746.6415
ENERGY: 940 164.8808 652.5383 2822.1460 0.0000 -202978.4543 22534.9332 26.9818 0.0000 0.0000 -176776.9741 0.0000 -176776.9741 -176776.9741 0.0000 16730.5143 -4738.9110 534946.2959 16730.5143 -4738.9110
ENERGY: 960 166.4066 660.8186 2821.2646 0.0000 -203251.5840 22649.6505 27.9463 0.0000 0.0000 -176925.4974 0.0000 -176925.4974 -176925.4974 0.0000 16784.0718 -4717.9544 534946.2959 16784.0718 -4717.9544
ENERGY: 980 183.3354 675.3637 2819.9569 0.0000 -203466.8193 22735.2297 28.2549 0.0000 0.0000 -177024.6788 0.0000 -177024.6788 -177024.6788 0.0000 16831.5867 -4704.4408 534946.2959 16831.5867 -4704.4408
ENERGY: 1000 179.3257 662.7156 2821.3809 0.0000 -204014.6363 22988.0348 29.4042 0.0000 0.0000 -177333.7749 0.0000 -177333.7749 -177333.7749 0.0000 16986.6642 -4610.0102 534946.2959 16986.6642 -4610.0102
TCL: Setting parameter constraintScaling to 0
TCL: Minimizing for 5000 steps
ETITLE: TS BOND ANGLE DIHED IMPRP ELECT VDW BOUNDARY MISC KINETIC TOTAL TEMP POTENTIAL TOTAL3 TEMPAVG PRESSURE GPRESSURE VOLUME PRESSAVG GPRESSAVG
ENERGY: 1000 179.3257 662.7156 2821.3809 0.0000 -204014.6363 22988.0348 0.0000 0.0000 0.0000 -177363.1792 0.0000 -177363.1792 -177363.1792 0.0000 17011.2026 -27250.4789 534946.2959 17011.2026 -27250.4789
ENERGY: 2000 168.6694 663.2932 2798.4288 0.0000 -213956.5645 27371.5128 0.0000 0.0000 0.0000 -182954.6603 0.0000 -182954.6603 -182954.6603 0.0000 19305.2627 -3413.1196 534946.2959 19305.2627 -3413.1196
ENERGY: 3000 168.3929 668.2162 2791.0916 0.0000 -217264.8029 28810.8584 0.0000 0.0000 0.0000 -184826.2438 0.0000 -184826.2438 -184826.2438 0.0000 20071.0884 -3001.5528 534946.2959 20071.0884 -3001.5528
ENERGY: 4000 167.3450 667.7578 2782.8445 0.0000 -218747.2067 29400.3985 0.0000 0.0000 0.0000 -185728.8608 0.0000 -185728.8608 -185728.8608 0.0000 20368.8331 -2855.1055 534946.2959 20368.8331 -2855.1055
ENERGY: 5000 166.7424 666.4100 2777.9845 0.0000 -219460.0697 29687.2573 0.0000 0.0000 0.0000 -186161.6756 0.0000 -186161.6756 -186161.6756 0.0000 20520.1561 -2775.6255 534946.2959 20520.1561 -2775.6255
ENERGY: 6000 166.6292 668.1629 2776.5526 0.0000 -219951.2539 29891.7803 0.0000 0.0000 0.0000 -186448.1289 0.0000 -186448.1289 -186448.1289 0.0000 20623.6973 -2723.9338 534946.2959 20623.6973 -2723.9338
