Info: SIMULATION PARAMETERS:
Info: TIMESTEP               2
Info: NUMBER OF STEPS        0
Info: STEPS PER CYCLE        10
Info: PERIODIC CELL BASIS 1  72.449 0 0
Info: PERIODIC CELL BASIS 2  0 93.247 0
Info: PERIODIC CELL BASIS 3  0 0 79.185
Info: PERIODIC CELL CENTER   -0.248 -0.156 -0.047
Info: WRAPPING WATERS AROUND PERIODIC BOUNDARIES ON OUTPUT.
Info: WRAPPING ALL CLUSTERS AROUND PERIODIC BOUNDARIES ON OUTPUT.
Info: FIRST LDB TIMESTEP     50
Info: LAST LDB TIMESTEP     -1
Info: HOM BACKGROUND SCALING 1
Info: PME BACKGROUND SCALING 1
Info: MIN ATOMS PER PATCH    40
Info: INITIAL TEMPERATURE    0
Info: CENTER OF MASS MOVING INITIALLY? NO
Info: DIELECTRIC             1
Info: EXCLUDE                SCALED ONE-FOUR
Info: 1-4 ELECTROSTATICS SCALED BY 0.833333
Info: MODIFIED 1-4 VDW PARAMETERS WILL BE USED
Info: NO DCD TRAJECTORY OUTPUT
Info: NO EXTENDED SYSTEM TRAJECTORY OUTPUT
Info: NO VELOCITY DCD OUTPUT
Info: NO FORCE DCD OUTPUT
Info: OUTPUT FILENAME        ../replicas/rep10/equilibration/eq0
Info: NO RESTART FILE
Info: SWITCHING ACTIVE
Info: SWITCHING ON           10
Info: SWITCHING OFF          12
Info: PAIRLIST DISTANCE      13.5
Info: PAIRLIST SHRINK RATE   0.01
Info: PAIRLIST GROW RATE     0.01
Info: PAIRLIST TRIGGER       0.3
Info: PAIRLISTS PER CYCLE    2
Info: PAIRLISTS ENABLED
Info: MARGIN                 0
Info: HYDROGEN GROUP CUTOFF  2.5
Info: PATCH DIMENSION        16
Info: ENERGY OUTPUT STEPS    500
Info: CROSSTERM ENERGY INCLUDED IN DIHEDRAL
Info: TIMING OUTPUT STEPS    5000
Info: PRESSURE OUTPUT STEPS  500
Info: HARMONIC CONSTRAINTS ACTIVE
Info: HARMONIC CONS EXP      2
Info: HARMONIC CONS SCALING  10
Info: CONJUGATE GRADIENT MINIMIZATION ACTIVE
Info: LINE MINIMIZATION GOAL = 0.001
Info: BABY STEP SIZE = 0.01
Info: TINY STEP SIZE = 1e-06
Info: PARTICLE MESH EWALD (PME) ACTIVE
Info: PME TOLERANCE               1e-06
Info: PME EWALD COEFFICIENT       0.257952
Info: PME INTERPOLATION ORDER     4
Info: PME GRID DIMENSIONS         80 96 80
Info: PME MAXIMUM GRID SPACING    1
Info: FULL ELECTROSTATIC EVALUATION FREQUENCY      2
Info: USING VERLET I (r-RESPA) MTS SCHEME.
Info: C1 SPLITTING OF LONG RANGE ELECTROSTATICS
Info: PLACING ATOMS IN PATCHES BY HYDROGEN GROUPS
Info: RIGID BONDS TO HYDROGEN : ALL
Info:         ERROR TOLERANCE : 1e-05
Info:          MAX ITERATIONS : 100
Info: RIGID WATER USING SETTLE ALGORITHM
Info: RANDOM NUMBER SEED     1503693977
Info: USE HYDROGEN BONDS?    NO
Info: Using AMBER format force field!
Info: AMBER PARM FILE        ../build/complex.top
Info: COORDINATE PDB         ../build/complex.pdb
Info: Exclusions in PARM file will be ignored!
Info: SCNB (VDW SCALING)     2
Info: USING ARITHMETIC MEAN TO COMBINE L-J SIGMA PARAMETERS
Info: SUMMARY OF PARAMETERS:
Info: 71 BONDS
Info: 145 ANGLES
Info: 76 DIHEDRAL
Info: 0 IMPROPER
Info: 0 CROSSTERM
Info: 0 VDW
Info: 190 VDW_PAIRS
Info: 0 NBTHOLE_PAIRS
Info: STRUCTURE SUMMARY:
Info: 49394 ATOMS
Info: 49448 BONDS
Info: 8698 ANGLES
Info: 18780 DIHEDRALS
Info: 0 IMPROPERS
Info: 0 CROSSTERMS
Info: 0 EXCLUSIONS
Info: 2336 CONSTRAINTS
Info: 47058 RIGID BONDS
Info: 101124 DEGREES OF FREEDOM
Info: 17225 HYDROGEN GROUPS
Info: 4 ATOMS IN LARGEST HYDROGEN GROUP
Info: 17225 MIGRATION GROUPS
Info: 4 ATOMS IN LARGEST MIGRATION GROUP
Info: TOTAL MASS = 301478 amu
Info: TOTAL CHARGE = 1.00115e-05 e
Info: MASS DENSITY = 0.935846 g/cm^3
Info: ATOM DENSITY = 0.0923345 atoms/A^3
Info: ADDED 70656 IMPLICIT EXCLUSIONS
Info: NONBONDED TABLE R-SQUARED SPACING: 0.0625
Info: NONBONDED TABLE SIZE: 769 POINTS
Info: REMOVING COM VELOCITY 0 0 0
TCL: Minimizing for 100 steps
ETITLE: TS BOND ANGLE DIHED IMPRP ELECT VDW BOUNDARY MISC KINETIC TOTAL TEMP POTENTIAL TOTAL3 TEMPAVG PRESSURE GPRESSURE VOLUME PRESSAVG GPRESSAVG
ENERGY: 0 155.4176 1012.2698 2855.7272 0.0000 -154496.7911 207729.2052 0.0468 0.0000 0.0000 57255.8755 0.0000 57255.8755 57255.8755 0.0000 116350.2532 86546.1670 534946.2959 116350.2532 86546.1670
ENERGY: 20 304.7549 935.7911 2893.4663 0.0000 -158672.9405 17936.6595 143.9454 0.0000 0.0000 -136458.3232 0.0000 -136458.3232 -136458.3232 0.0000 16523.9387 -239.4558 534946.2959 16523.9387 -239.4558
ENERGY: 40 198.7443 799.5727 2896.9273 0.0000 -162811.4532 16417.9536 221.3030 0.0000 0.0000 -142276.9522 0.0000 -142276.9522 -142276.9522 0.0000 15011.2702 -2135.4699 534946.2959 15011.2702 -2135.4699
ENERGY: 60 130.5283 715.3440 2898.2166 0.0000 -167496.1572 15446.7539 315.2796 0.0000 0.0000 -147990.0348 0.0000 -147990.0348 -147990.0348 0.0000 13793.8837 -3799.3987 534946.2959 13793.8837 -3799.3987
ENERGY: 80 431.2726 765.6308 2904.3785 0.0000 -169937.5234 15121.1531 372.0121 0.0000 0.0000 -150343.0763 0.0000 -150343.0763 -150343.0763 0.0000 13270.3321 -4577.2430 534946.2959 13270.3321 -4577.2430
ENERGY: 100 119.3877 710.0604 2905.2591 0.0000 -171259.7186 14991.7862 387.3614 0.0000 0.0000 -152145.8639 0.0000 -152145.8639 -152145.8639 0.0000 13056.2642 -4908.1744 534946.2959 13056.2642 -4908.1744
TCL: Setting parameter constraintScaling to 5.0
TCL: Minimizing for 100 steps
ETITLE: TS BOND ANGLE DIHED IMPRP ELECT VDW BOUNDARY MISC KINETIC TOTAL TEMP POTENTIAL TOTAL3 TEMPAVG PRESSURE GPRESSURE VOLUME PRESSAVG GPRESSAVG
ENERGY: 100 119.3877 710.0604 2905.2591 0.0000 -171259.7187 14991.7862 193.6807 0.0000 0.0000 -152339.5446 0.0000 -152339.5446 -152339.5446 0.0000 13672.7705 -23021.8208 534946.2959 13672.7705 -23021.8208
ENERGY: 120 108.8847 687.5847 2912.9267 0.0000 -172865.8775 14798.2709 281.1916 0.0000 0.0000 -154077.0188 0.0000 -154077.0188 -154077.0188 0.0000 13218.2556 -4906.0151 534946.2959 13218.2556 -4906.0151
ENERGY: 140 309.4524 708.8714 2913.8026 0.0000 -174236.6259 14731.4838 326.6381 0.0000 0.0000 -155246.3777 0.0000 -155246.3777 -155246.3777 0.0000 12971.5308 -5303.2337 534946.2959 12971.5308 -5303.2337
ENERGY: 160 265.1361 683.0853 2923.1681 0.0000 -176274.6974 14757.2982 382.8655 0.0000 0.0000 -157263.1442 0.0000 -157263.1442 -157263.1442 0.0000 12741.0398 -5738.6116 534946.2959 12741.0398 -5738.6116
ENERGY: 180 268.9596 744.0941 2928.5660 0.0000 -178994.8782 15023.4266 473.2747 0.0000 0.0000 -159556.5573 0.0000 -159556.5573 -159556.5573 0.0000 12521.6336 -6219.3776 534946.2959 12521.6336 -6219.3776
ENERGY: 200 238.8376 694.0998 2941.3586 0.0000 -181555.9284 15586.9725 546.2602 0.0000 0.0000 -161548.3997 0.0000 -161548.3997 -161548.3997 0.0000 12582.6399 -6416.2108 534946.2959 12582.6399 -6416.2108
TCL: Setting parameter constraintScaling to 2.5
TCL: Minimizing for 100 steps
ETITLE: TS BOND ANGLE DIHED IMPRP ELECT VDW BOUNDARY MISC KINETIC TOTAL TEMP POTENTIAL TOTAL3 TEMPAVG PRESSURE GPRESSURE VOLUME PRESSAVG GPRESSAVG
ENERGY: 200 238.8376 694.0998 2941.3586 0.0000 -181555.9284 15586.9725 273.1301 0.0000 0.0000 -161821.5298 0.0000 -161821.5298 -161821.5298 0.0000 13229.5393 -25646.9883 534946.2959 13229.5393 -25646.9883
ENERGY: 220 246.7479 677.8801 2933.0089 0.0000 -182076.9926 15471.6768 337.7663 0.0000 0.0000 -162409.9127 0.0000 -162409.9127 -162409.9127 0.0000 12971.1370 -6082.5292 534946.2959 12971.1370 -6082.5292
ENERGY: 240 140.4407 666.5012 2928.6085 0.0000 -182464.9659 15494.3545 343.7072 0.0000 0.0000 -162891.3537 0.0000 -162891.3537 -162891.3537 0.0000 13034.2046 -6100.1016 534946.2959 13034.2046 -6100.1016
ENERGY: 260 232.0696 701.6500 2922.5201 0.0000 -183743.2971 15756.2479 378.8878 0.0000 0.0000 -163751.9216 0.0000 -163751.9216 -163751.9216 0.0000 13014.0904 -6229.5904 534946.2959 13014.0904 -6229.5904
ENERGY: 280 203.3696 703.4553 2917.7796 0.0000 -185460.1686 16242.7183 456.9083 0.0000 0.0000 -164935.9375 0.0000 -164935.9375 -164935.9375 0.0000 13144.1201 -6334.9214 534946.2959 13144.1201 -6334.9214
ENERGY: 300 196.1464 659.0927 2920.7991 0.0000 -186571.9486 16638.6065 514.9426 0.0000 0.0000 -165642.3614 0.0000 -165642.3614 -165642.3614 0.0000 13238.4806 -6348.4753 534946.2959 13238.4806 -6348.4753
TCL: Setting parameter constraintScaling to 1.25
TCL: Minimizing for 100 steps
ETITLE: TS BOND ANGLE DIHED IMPRP ELECT VDW BOUNDARY MISC KINETIC TOTAL TEMP POTENTIAL TOTAL3 TEMPAVG PRESSURE GPRESSURE VOLUME PRESSAVG GPRESSAVG
ENERGY: 300 196.1464 659.0927 2920.7991 0.0000 -186571.9486 16638.6065 257.4713 0.0000 0.0000 -165899.8326 0.0000 -165899.8326 -165899.8326 0.0000 13701.1973 -26414.3396 534946.2959 13701.1973 -26414.3396
ENERGY: 320 155.1019 660.3143 2909.1839 0.0000 -187273.3697 16811.6067 287.6591 0.0000 0.0000 -166449.5038 0.0000 -166449.5038 -166449.5038 0.0000 13709.1277 -5952.9114 534946.2959 13709.1277 -5952.9114
ENERGY: 340 164.8375 655.8775 2910.1532 0.0000 -187797.7305 16973.4168 309.4115 0.0000 0.0000 -166784.0340 0.0000 -166784.0340 -166784.0340 0.0000 13769.1610 -5955.5403 534946.2959 13769.1610 -5955.5403
ENERGY: 360 142.1109 657.5985 2914.6214 0.0000 -188888.5414 17363.5480 348.9783 0.0000 0.0000 -167461.6843 0.0000 -167461.6843 -167461.6843 0.0000 13845.3313 -5982.8258 534946.2959 13845.3313 -5982.8258
ENERGY: 380 149.7594 645.6829 2900.0191 0.0000 -189105.3249 17423.1302 345.8730 0.0000 0.0000 -167640.8602 0.0000 -167640.8602 -167640.8602 0.0000 13924.1541 -5949.1213 534946.2959 13924.1541 -5949.1213
ENERGY: 400 214.0191 690.9295 2906.6309 0.0000 -190140.6886 17741.8305 370.2865 0.0000 0.0000 -168216.9920 0.0000 -168216.9920 -168216.9920 0.0000 13989.8518 -5998.9264 534946.2959 13989.8518 -5998.9264
TCL: Setting parameter constraintScaling to 0.625
TCL: Minimizing for 100 steps
ETITLE: TS BOND ANGLE DIHED IMPRP ELECT VDW BOUNDARY MISC KINETIC TOTAL TEMP POTENTIAL TOTAL3 TEMPAVG PRESSURE GPRESSURE VOLUME PRESSAVG GPRESSAVG
ENERGY: 400 214.0191 690.9295 2906.6309 0.0000 -190140.6886 17741.8305 185.1433 0.0000 0.0000 -168402.1353 0.0000 -168402.1353 -168402.1353 0.0000 14277.9857 -26675.1089 534946.2959 14277.9857 -26675.1089
ENERGY: 420 168.3931 653.1175 2898.5867 0.0000 -190438.9701 17837.7793 197.0867 0.0000 0.0000 -168684.0068 0.0000 -168684.0068 -168684.0068 0.0000 14319.3124 -5710.1138 534946.2959 14319.3124 -5710.1138
ENERGY: 440 163.8312 665.6374 2890.9052 0.0000 -191748.4326 18322.4136 252.9520 0.0000 0.0000 -169452.6932 0.0000 -169452.6932 -169452.6932 0.0000 14437.9322 -5720.8702 534946.2959 14437.9322 -5720.8702
ENERGY: 460 156.2784 659.6405 2892.6920 0.0000 -192180.5782 18455.0152 264.8255 0.0000 0.0000 -169752.1267 0.0000 -169752.1267 -169752.1267 0.0000 14483.1017 -5731.0235 534946.2959 14483.1017 -5731.0235
ENERGY: 480 189.5125 708.4507 2894.4669 0.0000 -192635.0985 18600.9417 268.4130 0.0000 0.0000 -169973.3137 0.0000 -169973.3137 -169973.3137 0.0000 14549.0595 -5713.3822 534946.2959 14549.0595 -5713.3822
ENERGY: 500 148.0764 691.0378 2893.3660 0.0000 -193258.5229 18856.1049 272.1206 0.0000 0.0000 -170397.8171 0.0000 -170397.8171 -170397.8171 0.0000 14723.0794 -5631.9591 534946.2959 14723.0794 -5631.9591
TCL: Setting parameter constraintScaling to 0.3125
TCL: Minimizing for 100 steps
ETITLE: TS BOND ANGLE DIHED IMPRP ELECT VDW BOUNDARY MISC KINETIC TOTAL TEMP POTENTIAL TOTAL3 TEMPAVG PRESSURE GPRESSURE VOLUME PRESSAVG GPRESSAVG
ENERGY: 500 148.0764 691.0378 2893.3660 0.0000 -193258.5229 18856.1049 136.0603 0.0000 0.0000 -170533.8774 0.0000 -170533.8774 -170533.8774 0.0000 14908.8296 -26783.7707 534946.2959 14908.8296 -26783.7707
ENERGY: 520 166.1062 651.9727 2879.3892 0.0000 -193827.1796 19072.5786 155.0146 0.0000 0.0000 -170902.1183 0.0000 -170902.1183 -170902.1183 0.0000 14937.0623 -5466.0206 534946.2959 14937.0623 -5466.0206
ENERGY: 540 182.3077 672.9409 2879.0319 0.0000 -194620.7035 19393.3040 183.9784 0.0000 0.0000 -171309.1406 0.0000 -171309.1406 -171309.1406 0.0000 14983.9230 -5483.7057 534946.2959 14983.9230 -5483.7057
ENERGY: 560 280.8766 727.0241 2877.0869 0.0000 -195344.1625 19624.4966 195.1541 0.0000 0.0000 -171639.5241 0.0000 -171639.5241 -171639.5241 0.0000 15098.3598 -5452.7298 534946.2959 15098.3598 -5452.7298
ENERGY: 580 154.3897 651.9848 2870.9615 0.0000 -195273.9738 19591.5097 193.1995 0.0000 0.0000 -171811.9285 0.0000 -171811.9285 -171811.9285 0.0000 15114.3050 -5442.0107 534946.2959 15114.3050 -5442.0107
ENERGY: 600 175.3539 676.1740 2876.8171 0.0000 -195792.7161 19797.8498 197.5966 0.0000 0.0000 -172068.9246 0.0000 -172068.9246 -172068.9246 0.0000 15228.8743 -5396.4116 534946.2959 15228.8743 -5396.4116
TCL: Setting parameter constraintScaling to 0.15625
TCL: Minimizing for 100 steps
ETITLE: TS BOND ANGLE DIHED IMPRP ELECT VDW BOUNDARY MISC KINETIC TOTAL TEMP POTENTIAL TOTAL3 TEMPAVG PRESSURE GPRESSURE VOLUME PRESSAVG GPRESSAVG
ENERGY: 600 175.3539 676.1740 2876.8171 0.0000 -195792.7161 19797.8498 98.7983 0.0000 0.0000 -172167.7229 0.0000 -172167.7229 -172167.7229 0.0000 15343.4600 -26925.4724 534946.2959 15343.4600 -26925.4724
ENERGY: 620 170.2123 671.1594 2866.7227 0.0000 -196123.2309 19901.9026 105.1577 0.0000 0.0000 -172408.0762 0.0000 -172408.0762 -172408.0762 0.0000 15397.5473 -5279.5269 534946.2959 15397.5473 -5279.5269
ENERGY: 640 165.9541 656.7993 2863.3495 0.0000 -196576.3305 20067.6211 113.0348 0.0000 0.0000 -172709.5717 0.0000 -172709.5717 -172709.5717 0.0000 15425.2855 -5283.5092 534946.2959 15425.2855 -5283.5092
ENERGY: 660 168.4535 680.0328 2868.7399 0.0000 -196923.4141 20226.8914 115.9130 0.0000 0.0000 -172863.3834 0.0000 -172863.3834 -172863.3834 0.0000 15507.9936 -5247.1022 534946.2959 15507.9936 -5247.1022
ENERGY: 680 228.9209 663.9807 2855.1499 0.0000 -198067.1606 20667.2707 130.6737 0.0000 0.0000 -173521.1648 0.0000 -173521.1648 -173521.1648 0.0000 15708.8829 -5171.7013 534946.2959 15708.8829 -5171.7013
ENERGY: 700 174.4339 671.2341 2853.2974 0.0000 -198805.5453 20958.1717 142.6795 0.0000 0.0000 -174005.7288 0.0000 -174005.7288 -174005.7288 0.0000 15848.6802 -5123.2840 534946.2959 15848.6802 -5123.2840
TCL: Setting parameter constraintScaling to 0.078125
TCL: Minimizing for 100 steps
ETITLE: TS BOND ANGLE DIHED IMPRP ELECT VDW BOUNDARY MISC KINETIC TOTAL TEMP POTENTIAL TOTAL3 TEMPAVG PRESSURE GPRESSURE VOLUME PRESSAVG GPRESSAVG
ENERGY: 700 174.4339 671.2341 2853.2974 0.0000 -198805.5453 20958.1717 71.3398 0.0000 0.0000 -174077.0685 0.0000 -174077.0685 -174077.0685 0.0000 15920.7332 -27073.0341 534946.2959 15920.7332 -27073.0341
ENERGY: 720 229.8225 702.0593 2853.4722 0.0000 -199175.5521 21113.5892 75.0087 0.0000 0.0000 -174201.6001 0.0000 -174201.6001 -174201.6001 0.0000 15979.1349 -5034.3774 534946.2959 15979.1349 -5034.3774
ENERGY: 740 170.3392 656.5277 2841.1695 0.0000 -199718.4037 21290.8217 80.7735 0.0000 0.0000 -174678.7722 0.0000 -174678.7722 -174678.7722 0.0000 16062.2654 -5015.3171 534946.2959 16062.2654 -5015.3171
ENERGY: 760 273.6712 720.7018 2838.6368 0.0000 -200227.5314 21469.3120 84.3536 0.0000 0.0000 -174840.8559 0.0000 -174840.8559 -174840.8559 0.0000 16161.0815 -5003.4073 534946.2959 16161.0815 -5003.4073
ENERGY: 780 238.5785 708.8184 2839.9273 0.0000 -200535.3701 21617.4398 85.9635 0.0000 0.0000 -175044.6426 0.0000 -175044.6426 -175044.6426 0.0000 16196.8610 -4956.9748 534946.2959 16196.8610 -4956.9748
ENERGY: 800 222.1089 765.5920 2842.3934 0.0000 -201222.1029 21896.8391 90.6068 0.0000 0.0000 -175404.5627 0.0000 -175404.5627 -175404.5627 0.0000 16396.4768 -4872.8323 534946.2959 16396.4768 -4872.8323
TCL: Setting parameter constraintScaling to 0.0390625
TCL: Minimizing for 100 steps
ETITLE: TS BOND ANGLE DIHED IMPRP ELECT VDW BOUNDARY MISC KINETIC TOTAL TEMP POTENTIAL TOTAL3 TEMPAVG PRESSURE GPRESSURE VOLUME PRESSAVG GPRESSAVG
ENERGY: 800 222.1089 765.5920 2842.3934 0.0000 -201222.1029 21896.8391 45.3034 0.0000 0.0000 -175449.8661 0.0000 -175449.8661 -175449.8661 0.0000 16438.3126 -27129.6275 534946.2959 16438.3126 -27129.6275
ENERGY: 820 194.5513 675.1059 2833.9974 0.0000 -201347.2419 21886.5352 46.6159 0.0000 0.0000 -175710.4361 0.0000 -175710.4361 -175710.4361 0.0000 16409.7489 -4876.6599 534946.2959 16409.7489 -4876.6599
ENERGY: 840 175.1711 670.0825 2832.7849 0.0000 -201477.6473 21936.0216 47.5159 0.0000 0.0000 -175816.0713 0.0000 -175816.0713 -175816.0713 0.0000 16404.6508 -4867.8092 534946.2959 16404.6508 -4867.8092
ENERGY: 860 170.8001 674.3637 2827.3747 0.0000 -202056.4071 22183.5644 51.4279 0.0000 0.0000 -176148.8762 0.0000 -176148.8762 -176148.8762 0.0000 16528.4750 -4825.4023 534946.2959 16528.4750 -4825.4023
ENERGY: 880 170.5553 658.3668 2828.1965 0.0000 -202154.0867 22212.6643 51.6193 0.0000 0.0000 -176232.6845 0.0000 -176232.6845 -176232.6845 0.0000 16532.6698 -4826.6890 534946.2959 16532.6698 -4826.6890
ENERGY: 900 164.5989 662.9559 2826.3599 0.0000 -202350.5903 22284.9186 51.5269 0.0000 0.0000 -176360.2300 0.0000 -176360.2300 -176360.2300 0.0000 16591.7872 -4796.2103 534946.2959 16591.7872 -4796.2103
TCL: Setting parameter constraintScaling to 0.01953125
TCL: Minimizing for 100 steps
ETITLE: TS BOND ANGLE DIHED IMPRP ELECT VDW BOUNDARY MISC KINETIC TOTAL TEMP POTENTIAL TOTAL3 TEMPAVG PRESSURE GPRESSURE VOLUME PRESSAVG GPRESSAVG
ENERGY: 900 164.5989 662.9559 2826.3599 0.0000 -202350.5903 22284.9186 25.7634 0.0000 0.0000 -176385.9935 0.0000 -176385.9935 -176385.9935 0.0000 16614.3294 -27227.5902 534946.2959 16614.3294 -27227.5902
ENERGY: 920 189.7474 659.1464 2823.7401 0.0000 -202518.9096 22345.7358 26.3606 0.0000 0.0000 -176474.1792 0.0000 -176474.1792 -176474.1792 0.0000 16642.0293 -4769.2508 534946.2959 16642.0293 -4769.2508
ENERGY: 940 172.4141 661.8842 2822.8331 0.0000 -202683.3377 22414.7409 26.8690 0.0000 0.0000 -176584.5964 0.0000 -176584.5964 -176584.5964 0.0000 16669.2423 -4752.2523 534946.2959 16669.2423 -4752.2523
ENERGY: 960 161.5674 655.2411 2820.3284 0.0000 -202975.0948 22533.5422 27.7157 0.0000 0.0000 -176776.7000 0.0000 -176776.7000 -176776.7000 0.0000 16729.2005 -4728.0476 534946.2959 16729.2005 -4728.0476
ENERGY: 980 194.2299 671.6821 2825.7634 0.0000 -203252.3599 22648.4001 28.3223 0.0000 0.0000 -176883.9621 0.0000 -176883.9621 -176883.9621 0.0000 16785.6285 -4699.3045 534946.2959 16785.6285 -4699.3045
ENERGY: 1000 167.4768 657.5979 2818.1546 0.0000 -203912.5338 22936.7497 29.9983 0.0000 0.0000 -177302.5565 0.0000 -177302.5565 -177302.5565 0.0000 16935.4212 -4633.4485 534946.2959 16935.4212 -4633.4485
TCL: Setting parameter constraintScaling to 0
TCL: Minimizing for 5000 steps
ETITLE: TS BOND ANGLE DIHED IMPRP ELECT VDW BOUNDARY MISC KINETIC TOTAL TEMP POTENTIAL TOTAL3 TEMPAVG PRESSURE GPRESSURE VOLUME PRESSAVG GPRESSAVG
ENERGY: 1000 167.4768 657.5979 2818.1546 0.0000 -203912.5338 22936.7497 0.0000 0.0000 0.0000 -177332.5548 0.0000 -177332.5548 -177332.5548 0.0000 16960.3708 -27258.7623 534946.2959 16960.3708 -27258.7623
ENERGY: 2000 168.9720 664.7060 2798.6308 0.0000 -214073.7677 27468.6537 0.0000 0.0000 0.0000 -182972.8053 0.0000 -182972.8053 -182972.8053 0.0000 19357.2265 -3366.3713 534946.2959 19357.2265 -3366.3713
ENERGY: 3000 167.9370 672.1543 2793.8405 0.0000 -217326.2877 28837.4984 0.0000 0.0000 0.0000 -184854.8575 0.0000 -184854.8575 -184854.8575 0.0000 20083.2344 -2948.7394 534946.2959 20083.2344 -2948.7394
ENERGY: 4000 167.8713 669.5696 2785.3085 0.0000 -218632.2073 29340.3521 0.0000 0.0000 0.0000 -185669.1058 0.0000 -185669.1058 -185669.1058 0.0000 20338.9369 -2824.0923 534946.2959 20338.9369 -2824.0923
ENERGY: 5000 166.9360 668.2329 2781.3130 0.0000 -219314.0322 29603.7153 0.0000 0.0000 0.0000 -186093.8350 0.0000 -186093.8350 -186093.8350 0.0000 20471.0284 -2762.6404 534946.2959 20471.0284 -2762.6404
ENERGY: 6000 165.9285 666.2102 2782.6160 0.0000 -219796.8768 29774.7081 0.0000 0.0000 0.0000 -186407.4141 0.0000 -186407.4141 -186407.4141 0.0000 20566.2691 -2722.9725 534946.2959 20566.2691 -2722.9725
