Info: SIMULATION PARAMETERS:
Info: TIMESTEP               1
Info: NUMBER OF STEPS        0
Info: STEPS PER CYCLE        10
Info: PERIODIC CELL BASIS 1  72.449 0 0
Info: PERIODIC CELL BASIS 2  0 93.247 0
Info: PERIODIC CELL BASIS 3  0 0 79.185
Info: PERIODIC CELL CENTER   -0.248 -0.156 -0.047
Info: WRAPPING WATERS AROUND PERIODIC BOUNDARIES ON OUTPUT.
Info: WRAPPING ALL CLUSTERS AROUND PERIODIC BOUNDARIES ON OUTPUT.
Info: FIRST LDB TIMESTEP     50
Info: LAST LDB TIMESTEP     -1
Info: HOM BACKGROUND SCALING 1
Info: PME BACKGROUND SCALING 1
Info: MIN ATOMS PER PATCH    40
Info: VELOCITY FILE          ../replicas/rep16/equilibration/eq1.vel
Info: CENTER OF MASS MOVING INITIALLY? NO
Info: DIELECTRIC             1
Info: EXCLUDE                SCALED ONE-FOUR
Info: 1-4 ELECTROSTATICS SCALED BY 0.833333
Info: MODIFIED 1-4 VDW PARAMETERS WILL BE USED
Info: DCD FILENAME           ../replicas/rep16/equilibration/eq2.dcd
Info: DCD FREQUENCY          5000
Info: DCD FIRST STEP         5000
Info: DCD FILE WILL CONTAIN UNIT CELL DATA
Info: XST FILENAME           ../replicas/rep16/equilibration/eq2.xst
Info: XST FREQUENCY          5000
Info: NO VELOCITY DCD OUTPUT
Info: NO FORCE DCD OUTPUT
Info: OUTPUT FILENAME        ../replicas/rep16/equilibration/eq2
Info: RESTART FILENAME       ../replicas/rep16/equilibration/eq2.restart
Info: RESTART FREQUENCY      5000
Info: BINARY RESTART FILES WILL BE USED
Info: SWITCHING ACTIVE
Info: SWITCHING ON           10
Info: SWITCHING OFF          12
Info: PAIRLIST DISTANCE      13.5
Info: PAIRLIST SHRINK RATE   0.01
Info: PAIRLIST GROW RATE     0.01
Info: PAIRLIST TRIGGER       0.3
Info: PAIRLISTS PER CYCLE    2
Info: PAIRLISTS ENABLED
Info: MARGIN                 0.48
Info: HYDROGEN GROUP CUTOFF  2.5
Info: PATCH DIMENSION        16.48
Info: ENERGY OUTPUT STEPS    500
Info: CROSSTERM ENERGY INCLUDED IN DIHEDRAL
Info: TIMING OUTPUT STEPS    5000
Info: PRESSURE OUTPUT STEPS  500
Info: HARMONIC CONSTRAINTS ACTIVE
Info: HARMONIC CONS EXP      2
Info: HARMONIC CONS SCALING  10
Info: LANGEVIN DYNAMICS ACTIVE
Info: LANGEVIN TEMPERATURE   300
Info: LANGEVIN USING BBK INTEGRATOR
Info: LANGEVIN DAMPING COEFFICIENT IS 5 INVERSE PS
Info: LANGEVIN DYNAMICS NOT APPLIED TO HYDROGENS
Info: BERENDSEN PRESSURE COUPLING ACTIVE
Info:     TARGET PRESSURE IS 1 BAR
Info:     COMPRESSIBILITY ESTIMATE IS 4.57e-05 BAR^(-1)
Info:     RELAXATION TIME IS 100 FS
Info:     APPLIED EVERY 2 STEPS
Info:     PRESSURE CONTROL IS GROUP-BASED
Info:       CELL FLUCTUATION IS ISOTROPIC
Info: PARTICLE MESH EWALD (PME) ACTIVE
Info: PME TOLERANCE               1e-06
Info: PME EWALD COEFFICIENT       0.257952
Info: PME INTERPOLATION ORDER     4
Info: PME GRID DIMENSIONS         80 96 80
Info: PME MAXIMUM GRID SPACING    1
Info: FULL ELECTROSTATIC EVALUATION FREQUENCY      2
Info: USING VERLET I (r-RESPA) MTS SCHEME.
Info: C1 SPLITTING OF LONG RANGE ELECTROSTATICS
Info: PLACING ATOMS IN PATCHES BY HYDROGEN GROUPS
Info: RIGID BONDS TO HYDROGEN : WATER
Info:         ERROR TOLERANCE : 1e-05
Info:          MAX ITERATIONS : 100
Info: RIGID WATER USING SETTLE ALGORITHM
Info: RANDOM NUMBER SEED     1503713214
Info: USE HYDROGEN BONDS?    NO
Info: Using AMBER format force field!
Info: AMBER PARM FILE        ../build/complex.top
Info: COORDINATE PDB         ../replicas/rep16/equilibration/eq1.coor
Info: Exclusions in PARM file will be ignored!
Info: SCNB (VDW SCALING)     2
Info: USING ARITHMETIC MEAN TO COMBINE L-J SIGMA PARAMETERS
Info: SUMMARY OF PARAMETERS:
Info: 71 BONDS
Info: 145 ANGLES
Info: 76 DIHEDRAL
Info: 0 IMPROPER
Info: 0 CROSSTERM
Info: 0 VDW
Info: 190 VDW_PAIRS
Info: 0 NBTHOLE_PAIRS
Info: STRUCTURE SUMMARY:
Info: 49394 ATOMS
Info: 49448 BONDS
Info: 8698 ANGLES
Info: 18780 DIHEDRALS
Info: 0 IMPROPERS
Info: 0 CROSSTERMS
Info: 0 EXCLUSIONS
Info: 2336 CONSTRAINTS
Info: 44667 RIGID BONDS
Info: 103515 DEGREES OF FREEDOM
Info: 17225 HYDROGEN GROUPS
Info: 4 ATOMS IN LARGEST HYDROGEN GROUP
Info: 17225 MIGRATION GROUPS
Info: 4 ATOMS IN LARGEST MIGRATION GROUP
Info: TOTAL MASS = 301478 amu
Info: TOTAL CHARGE = 1.00115e-05 e
Info: MASS DENSITY = 0.935846 g/cm^3
Info: ATOM DENSITY = 0.0923345 atoms/A^3
Info: ADDED 70656 IMPLICIT EXCLUSIONS
Info: NONBONDED TABLE R-SQUARED SPACING: 0.0625
Info: NONBONDED TABLE SIZE: 769 POINTS
Info: REMOVING COM VELOCITY 0.0120228 0.0091991 0.0161593
TCL: Running for 5000 steps
ETITLE: TS BOND ANGLE DIHED IMPRP ELECT VDW BOUNDARY MISC KINETIC TOTAL TEMP POTENTIAL TOTAL3 TEMPAVG PRESSURE GPRESSURE VOLUME PRESSAVG GPRESSAVG
ENERGY: 0 381.2282 1206.5755 2913.0142 0.0000 -212724.0445 29594.8549 0.0000 0.0000 10017.5172 -168610.8545 97.3974 -178628.3717 -168601.3343 97.3974 -2326.6355 -2421.6726 534946.2959 -2326.6355 -2421.6726
ENERGY: 1000 1198.5742 1980.7094 3110.1282 0.0000 -193485.8199 26466.9226 778.3601 0.0000 24160.1332 -135790.9923 234.9018 -159951.1255 -135757.8009 219.0674 -27.8341 -6.2630 522857.6749 -13.3125 -13.6113
ENERGY: 2000 1490.6424 2152.2456 3127.2855 0.0000 -183958.6280 23248.6338 789.7158 0.0000 27671.8449 -125478.2600 269.0452 -153150.1049 -125443.1289 263.7515 47.9421 -9.1658 516206.3157 -32.3885 -32.6617
ENERGY: 3000 1579.1721 2195.2381 3131.8494 0.0000 -178999.9096 21627.7563 812.4972 0.0000 29328.1633 -120325.2332 285.1491 -149653.3964 -120272.3857 283.5674 -13.4748 0.3659 513285.9213 -4.2694 -4.0446
ENERGY: 4000 1547.3843 2191.4695 3151.6845 0.0000 -177087.4739 20795.9009 798.1309 0.0000 30370.9625 -118231.9414 295.2879 -148602.9038 -118187.3055 292.9469 -49.5971 -43.2317 507609.9627 -29.7693 -29.6446
ENERGY: 5000 1534.9264 2226.6973 3143.1113 0.0000 -176038.5301 20533.6047 845.3072 0.0000 30399.7692 -117355.1140 295.5680 -147754.8831 -117319.9145 296.9149 -36.4924 9.7380 506779.1042 -3.0270 -2.4301
TCL: Setting parameter constraintScaling to 5.0
TCL: Running for 5000 steps
ETITLE: TS BOND ANGLE DIHED IMPRP ELECT VDW BOUNDARY MISC KINETIC TOTAL TEMP POTENTIAL TOTAL3 TEMPAVG PRESSURE GPRESSURE VOLUME PRESSAVG GPRESSAVG
ENERGY: 5000 1534.9264 2226.6973 3143.1113 0.0000 -176038.5301 20533.6047 422.6536 0.0000 30397.7230 -117779.8137 295.5481 -148177.5367 -117735.5780 295.5481 -109.1796 -57.1603 506779.1042 -109.1796 -57.1603
ENERGY: 6000 1627.1554 2344.0758 3157.8180 0.0000 -175763.4178 20334.0594 658.2260 0.0000 30642.6569 -116999.4263 297.9295 -147642.0832 -116956.8943 298.2133 -36.2408 -12.7607 503757.2013 -21.7250 -21.0059
ENERGY: 7000 1600.3056 2239.2262 3149.2003 0.0000 -175270.2419 20099.8795 630.4861 0.0000 30844.9446 -116706.1995 299.8963 -147551.1441 -116663.4554 299.5443 -31.0073 -31.5556 503603.7251 -1.2932 -1.6570
ENERGY: 8000 1590.6668 2252.1361 3148.5282 0.0000 -175028.8892 19869.1318 659.7151 0.0000 30733.7011 -116775.0103 298.8147 -147508.7113 -116720.5162 298.8434 -37.2356 -40.8539 503860.6417 -5.4450 -5.2392
ENERGY: 9000 1624.4501 2255.4423 3166.2562 0.0000 -175510.8294 19991.9885 655.2271 0.0000 31009.0418 -116808.4234 301.4918 -147817.4652 -116766.8662 299.8277 -25.9308 -1.2514 502566.0910 -7.8340 -7.5903
ENERGY: 10000 1600.7095 2277.4849 3154.6652 0.0000 -175508.1687 20151.6876 655.7686 0.0000 30827.0624 -116840.7906 299.7224 -147667.8530 -116795.3622 299.9438 -95.8840 -53.2284 501757.9548 0.9106 0.9432
TCL: Setting parameter constraintScaling to 2.5
TCL: Running for 5000 steps
ETITLE: TS BOND ANGLE DIHED IMPRP ELECT VDW BOUNDARY MISC KINETIC TOTAL TEMP POTENTIAL TOTAL3 TEMPAVG PRESSURE GPRESSURE VOLUME PRESSAVG GPRESSAVG
ENERGY: 10000 1600.7095 2277.4849 3154.6652 0.0000 -175508.1688 20151.6876 327.8843 0.0000 30825.0245 -117170.7128 299.7026 -147995.7373 -117127.4093 299.7026 -125.2142 -79.4464 501757.9548 -125.2142 -79.4464
ENERGY: 11000 1603.9745 2379.4105 3168.1149 0.0000 -175666.1545 20093.0045 521.6431 0.0000 30844.0431 -117055.9640 299.8875 -147900.0071 -117009.0693 298.8819 90.9773 25.8825 501326.2592 -13.7847 -14.1137
ENERGY: 12000 1629.7323 2374.9587 3189.6846 0.0000 -175351.6441 19982.7923 525.1494 0.0000 30708.3484 -116940.9784 298.5682 -147649.3268 -116895.5197 299.6232 5.5411 -38.7950 501721.5628 2.4010 1.4752
ENERGY: 13000 1621.0590 2279.7771 3153.0788 0.0000 -175838.8158 20058.7962 519.2443 0.0000 30879.4170 -117327.4433 300.2315 -148206.8604 -117273.2250 298.3084 -14.7902 -38.6498 500466.1227 -1.5490 -1.4467
ENERGY: 14000 1639.4142 2374.5021 3187.1160 0.0000 -175948.0277 20190.4466 490.6965 0.0000 30643.0658 -117422.7865 297.9335 -148065.8523 -117376.7486 298.8813 -30.1341 -16.9530 498940.1578 -10.4579 -10.5440
ENERGY: 15000 1651.5966 2359.0449 3198.9180 0.0000 -175830.0077 20087.9993 513.7350 0.0000 30862.8255 -117155.8885 300.0701 -148018.7140 -117112.9944 299.4609 10.3152 7.3697 498969.3516 9.1329 9.1832
TCL: Setting parameter constraintScaling to 1.25
TCL: Running for 5000 steps
ETITLE: TS BOND ANGLE DIHED IMPRP ELECT VDW BOUNDARY MISC KINETIC TOTAL TEMP POTENTIAL TOTAL3 TEMPAVG PRESSURE GPRESSURE VOLUME PRESSAVG GPRESSAVG
ENERGY: 15000 1651.5966 2359.0449 3198.9180 0.0000 -175830.0077 20087.9993 256.8675 0.0000 30860.7637 -117414.8178 300.0501 -148275.5815 -117373.6362 300.0501 -45.8369 -53.1558 498969.3516 -45.8369 -53.1558
ENERGY: 16000 1617.5236 2375.8711 3229.8846 0.0000 -176355.7625 20469.4248 388.0545 0.0000 30905.3808 -117369.6231 300.4839 -148275.0039 -117327.6765 299.7663 -188.9033 -18.9233 498688.9835 9.3033 9.0558
ENERGY: 17000 1600.8081 2380.8513 3235.2498 0.0000 -175471.6934 19956.3891 399.2850 0.0000 30677.2341 -117221.8759 298.2657 -147899.1100 -117177.7438 299.7285 -10.3474 20.1910 499431.3938 -3.1513 -2.7887
ENERGY: 18000 1636.4890 2333.0938 3190.3465 0.0000 -175251.6591 19949.6561 404.6740 0.0000 30821.6755 -116915.7243 299.6701 -147737.3998 -116869.8867 300.5097 -38.5935 -21.1893 499405.0444 3.0276 3.5606
ENERGY: 19000 1632.0489 2334.7443 3178.6023 0.0000 -175636.0891 19935.2545 422.5601 0.0000 30966.9594 -117165.9196 301.0826 -148132.8790 -117123.9563 301.0610 -58.4521 25.5337 498913.3662 -0.7991 0.0406
ENERGY: 20000 1647.3784 2427.9403 3210.7989 0.0000 -175892.4408 20015.2613 383.4672 0.0000 30719.1745 -117488.4201 298.6735 -148207.5946 -117446.1256 298.8580 -66.8595 -47.3237 497852.9648 -10.8828 -10.1719
TCL: Setting parameter constraintScaling to 0.625
TCL: Running for 5000 steps
ETITLE: TS BOND ANGLE DIHED IMPRP ELECT VDW BOUNDARY MISC KINETIC TOTAL TEMP POTENTIAL TOTAL3 TEMPAVG PRESSURE GPRESSURE VOLUME PRESSAVG GPRESSAVG
ENERGY: 20000 1647.3784 2427.9403 3210.7989 0.0000 -175892.4408 20015.2613 191.7336 0.0000 30717.1195 -117682.2087 298.6535 -148399.3282 -117636.9373 298.6535 -106.4491 -80.3090 497852.9648 -106.4491 -80.3090
ENERGY: 21000 1661.7765 2423.8451 3207.8504 0.0000 -176018.8722 20178.8571 319.9464 0.0000 30694.0818 -117532.5149 298.4295 -148226.5968 -117479.2977 299.9274 -83.9268 -19.2683 498422.9928 6.0657 5.9709
ENERGY: 22000 1624.5795 2388.4047 3191.8143 0.0000 -175750.4830 20184.5424 324.7754 0.0000 30758.9630 -117277.4038 299.0603 -148036.3668 -117240.1607 300.0956 -28.9145 55.3981 499217.1641 6.1593 6.5398
ENERGY: 23000 1657.9494 2455.1831 3199.1469 0.0000 -176004.7432 20253.4779 329.9100 0.0000 30684.6896 -117424.3863 298.3382 -148109.0759 -117372.6176 298.7481 -128.6289 -10.0287 497972.2908 -5.5740 -5.3082
ENERGY: 24000 1632.7275 2417.0016 3224.9809 0.0000 -175907.2585 20038.9537 308.1657 0.0000 30908.8600 -117376.5691 300.5177 -148285.4291 -117334.0263 299.3835 -63.8182 9.9989 497956.1145 -2.1852 -1.5397
ENERGY: 25000 1658.1236 2365.2826 3221.0606 0.0000 -175748.6989 20190.4842 294.1846 0.0000 30905.8611 -117113.7023 300.4886 -148019.5634 -117063.9594 300.3446 122.9166 65.2478 499763.5249 12.6889 12.2753
TCL: Setting parameter constraintScaling to 0.3125
TCL: Running for 5000 steps
ETITLE: TS BOND ANGLE DIHED IMPRP ELECT VDW BOUNDARY MISC KINETIC TOTAL TEMP POTENTIAL TOTAL3 TEMPAVG PRESSURE GPRESSURE VOLUME PRESSAVG GPRESSAVG
ENERGY: 25000 1658.1236 2365.2826 3221.0606 0.0000 -175748.6989 20190.4842 147.0923 0.0000 30903.8437 -117262.8120 300.4689 -148166.6557 -117220.6951 300.4689 37.1849 -18.9938 499763.5249 37.1849 -18.9938
ENERGY: 26000 1621.6448 2403.7888 3188.8102 0.0000 -175736.6955 19897.5906 232.9442 0.0000 31073.1236 -117318.7933 302.1148 -148391.9169 -117264.3875 299.7401 -38.1420 -15.8935 497797.7329 -3.2684 -2.9452
ENERGY: 27000 1641.6984 2357.7372 3193.6668 0.0000 -175813.4558 20274.9921 244.4721 0.0000 30817.2151 -117283.6742 299.6267 -148100.8892 -117231.1295 299.6228 69.5555 30.1143 498968.1141 10.0144 9.4377
ENERGY: 28000 1606.4355 2373.3976 3207.5309 0.0000 -175430.5715 19816.5638 251.6166 0.0000 30921.5677 -117253.4593 300.6413 -148175.0270 -117208.1550 300.0137 -164.3737 -26.6199 500004.4203 9.8238 10.0385
ENERGY: 29000 1651.6786 2360.2275 3196.2788 0.0000 -175515.6511 19940.0164 243.7726 0.0000 30934.7207 -117188.9565 300.7692 -148123.6772 -117144.8400 300.5804 -108.4579 -2.8294 498990.6308 -12.5777 -12.5243
ENERGY: 30000 1692.5757 2393.0442 3184.9375 0.0000 -175796.7236 20087.5729 252.1575 0.0000 30997.0759 -117189.3598 301.3754 -148186.4357 -117147.4322 300.6149 43.4994 -16.8239 499169.4889 5.3877 5.2267
TCL: Setting parameter constraintScaling to 0.15625
TCL: Running for 5000 steps
ETITLE: TS BOND ANGLE DIHED IMPRP ELECT VDW BOUNDARY MISC KINETIC TOTAL TEMP POTENTIAL TOTAL3 TEMPAVG PRESSURE GPRESSURE VOLUME PRESSAVG GPRESSAVG
ENERGY: 30000 1692.5757 2393.0442 3184.9375 0.0000 -175796.7235 20087.5729 126.0787 0.0000 30995.0385 -117317.4759 301.3556 -148312.5144 -117275.7811 301.3556 29.9382 -24.1147 499169.4889 29.9382 -24.1147
ENERGY: 31000 1652.7017 2399.4944 3220.4187 0.0000 -176234.5185 20267.6091 188.0759 0.0000 31096.1498 -117410.0690 302.3387 -148506.2187 -117354.7684 299.7606 -28.4347 33.1718 497529.3201 7.8881 8.3363
ENERGY: 32000 1604.7454 2394.5927 3237.2648 0.0000 -176030.9255 20085.0595 185.3019 0.0000 30811.2385 -117712.7228 299.5686 -148523.9613 -117661.0938 300.1065 -126.5907 -22.4189 497142.6274 5.9688 6.1464
ENERGY: 33000 1606.4534 2364.3778 3207.8674 0.0000 -175753.4916 20083.7340 196.9615 0.0000 30752.2562 -117541.8413 298.9951 -148294.0975 -117509.8276 298.9494 55.3589 89.2747 497378.1988 5.1050 4.5897
ENERGY: 34000 1632.0081 2394.8834 3201.3666 0.0000 -176203.8138 20346.0001 215.3008 0.0000 30907.6842 -117506.5706 300.5063 -148414.2548 -117465.7713 298.6670 -17.1732 95.7041 499769.1226 19.5373 19.3489
ENERGY: 35000 1613.2613 2357.9788 3198.1992 0.0000 -176017.2560 20128.4366 188.4803 0.0000 30859.2450 -117671.6547 300.0353 -148530.8997 -117614.3174 299.1157 121.4055 96.4444 498460.2285 -9.1249 -9.3545
TCL: Setting parameter constraintScaling to 0.078125
TCL: Running for 5000 steps
ETITLE: TS BOND ANGLE DIHED IMPRP ELECT VDW BOUNDARY MISC KINETIC TOTAL TEMP POTENTIAL TOTAL3 TEMPAVG PRESSURE GPRESSURE VOLUME PRESSAVG GPRESSAVG
ENERGY: 35000 1613.2613 2357.9788 3198.1992 0.0000 -176017.2560 20128.4366 94.2402 0.0000 30857.2037 -117767.9362 300.0155 -148625.1399 -117725.9088 300.0155 78.6304 62.2283 498460.2285 78.6304 62.2283
ENERGY: 36000 1594.4676 2416.8854 3236.4408 0.0000 -176482.3092 20328.6283 141.9483 0.0000 30529.9359 -118234.0029 296.8336 -148763.9388 -118199.2067 298.0829 151.2306 118.5224 497536.4076 -10.3410 -10.4336
ENERGY: 37000 1596.5648 2420.3926 3235.4602 0.0000 -175691.7442 19964.4806 156.0152 0.0000 30843.8617 -117474.9690 299.8858 -148318.8307 -117415.2812 299.4209 -112.1539 -52.7033 498183.7142 3.4658 3.0480
ENERGY: 38000 1675.6395 2401.8642 3210.2534 0.0000 -175811.2689 20169.9684 146.8031 0.0000 30840.1132 -117366.6270 299.8493 -148206.7402 -117329.4576 300.3451 92.9250 81.5806 498065.5308 4.2655 3.9769
ENERGY: 39000 1648.4506 2411.5392 3201.7444 0.0000 -175818.3361 20058.2432 145.3367 0.0000 30637.5795 -117715.4426 297.8801 -148353.0220 -117667.8259 299.1349 60.6263 93.2715 496742.9070 2.9939 3.4955
ENERGY: 40000 1663.0995 2432.1893 3196.9509 0.0000 -175862.3024 19936.1207 148.8170 0.0000 30749.0023 -117736.1228 298.9635 -148485.1250 -117680.9420 299.4513 -121.3297 -103.7186 496644.4282 -0.4547 0.2066
TCL: Setting parameter constraintScaling to 0.0390625
TCL: Running for 5000 steps
ETITLE: TS BOND ANGLE DIHED IMPRP ELECT VDW BOUNDARY MISC KINETIC TOTAL TEMP POTENTIAL TOTAL3 TEMPAVG PRESSURE GPRESSURE VOLUME PRESSAVG GPRESSAVG
ENERGY: 40000 1663.0995 2432.1893 3196.9509 0.0000 -175862.3024 19936.1207 74.4085 0.0000 30746.9606 -117812.5730 298.9436 -148559.5335 -117770.3217 298.9436 -132.5962 -122.6861 496644.4282 -132.5962 -122.6861
ENERGY: 41000 1707.4419 2368.8377 3188.0774 0.0000 -175508.4341 19797.6955 100.4154 0.0000 30789.2634 -117556.7027 299.3549 -148345.9662 -117514.9030 299.2469 27.1443 -30.3995 495402.1390 -4.2916 -4.1087
ENERGY: 42000 1616.5156 2343.9072 3213.4608 0.0000 -175921.1450 20065.0210 98.1928 0.0000 30888.5822 -117695.4654 300.3206 -148584.0476 -117653.1627 300.2457 102.4493 73.4844 496750.7611 11.0827 11.7871
ENERGY: 43000 1631.2839 2394.8392 3208.1977 0.0000 -175997.3284 20059.1090 109.7824 0.0000 30640.6110 -117953.5053 297.9096 -148594.1163 -117907.6305 299.6015 4.6411 26.8214 498013.2869 5.1033 5.0049
ENERGY: 44000 1600.8868 2389.3693 3205.6995 0.0000 -175968.2468 19938.3606 115.3920 0.0000 30908.2678 -117810.2708 300.5120 -148718.5386 -117762.3910 298.9695 -66.9767 -50.7580 497795.7058 4.5144 4.9050
ENERGY: 45000 1630.5839 2395.7886 3208.3070 0.0000 -176118.0279 20312.2737 119.8679 0.0000 30833.8487 -117617.3579 299.7884 -148451.2067 -117569.4098 299.6309 50.2336 -19.6360 497193.3052 -3.5011 -3.4090
TCL: Setting parameter constraintScaling to 0.01953125
TCL: Running for 5000 steps
ETITLE: TS BOND ANGLE DIHED IMPRP ELECT VDW BOUNDARY MISC KINETIC TOTAL TEMP POTENTIAL TOTAL3 TEMPAVG PRESSURE GPRESSURE VOLUME PRESSAVG GPRESSAVG
ENERGY: 45000 1630.5839 2395.7886 3208.3070 0.0000 -176118.0279 20312.2737 59.9340 0.0000 30831.7832 -117679.3574 299.7683 -148511.1406 -117636.3445 299.7683 43.5504 -24.3755 497193.3052 43.5504 -24.3755
ENERGY: 46000 1597.6034 2368.0338 3203.9084 0.0000 -175428.8692 19819.3151 76.9008 0.0000 30724.0999 -117639.0078 298.7214 -148363.1077 -117592.7118 299.7121 -82.5521 10.9159 497633.7323 4.9452 4.8546
ENERGY: 47000 1641.5110 2423.2348 3181.7220 0.0000 -176176.3988 20191.9699 81.0010 0.0000 30764.1245 -117892.8355 299.1105 -148656.9600 -117839.5637 299.9191 -8.3341 74.1787 497478.0054 3.5866 3.2025
ENERGY: 48000 1644.4621 2382.9065 3182.3058 0.0000 -175837.5495 20075.0405 77.3820 0.0000 30973.2114 -117502.2412 301.1434 -148475.4526 -117453.5416 300.0419 -50.4418 -8.5651 496778.7252 -10.0612 -9.8472
ENERGY: 49000 1588.8083 2438.2629 3210.5681 0.0000 -175758.3590 20106.0408 80.7889 0.0000 30729.6826 -117604.2073 298.7756 -148333.8899 -117546.1479 299.3481 27.2320 77.4728 497243.2272 -1.5792 -2.2032
ENERGY: 50000 1668.4052 2357.3458 3212.4234 0.0000 -175625.3689 20160.5169 89.0646 0.0000 30503.8440 -117633.7690 296.5799 -148137.6130 -117585.3299 299.6082 -63.8396 -41.0373 496958.0235 -9.7001 -10.2949
TCL: Setting parameter constraintScaling to 0
TCL: Running for 5000 steps
ETITLE: TS BOND ANGLE DIHED IMPRP ELECT VDW BOUNDARY MISC KINETIC TOTAL TEMP POTENTIAL TOTAL3 TEMPAVG PRESSURE GPRESSURE VOLUME PRESSAVG GPRESSAVG
ENERGY: 50000 1668.4052 2357.3458 3212.4234 0.0000 -175625.3689 20160.5169 0.0000 0.0000 30501.8100 -117724.8676 296.5601 -148226.6776 -117683.8226 296.5601 -91.9213 -64.6636 496958.0235 -91.9213 -64.6636
ENERGY: 51000 1586.0813 2414.9840 3198.1800 0.0000 -175816.1230 20165.4561 0.0000 0.0000 31069.8897 -117381.5320 302.0834 -148451.4217 -117332.2612 300.4419 40.5152 58.8798 498392.2579 13.3550 13.0738
ENERGY: 52000 1693.4996 2457.9173 3202.0522 0.0000 -175728.5281 19959.3067 0.0000 0.0000 30832.4560 -117583.2963 299.7749 -148415.7522 -117542.1889 300.2080 -60.3507 -78.1352 496963.4888 2.0094 1.4169
ENERGY: 53000 1635.4934 2433.4576 3232.9332 0.0000 -175552.3648 19905.7939 0.0000 0.0000 30953.6282 -117391.0585 300.9530 -148344.6867 -117343.7011 300.1357 1.1405 4.9501 497258.9812 14.6887 14.8478
ENERGY: 54000 1649.1925 2390.3145 3234.3526 0.0000 -175993.6438 20149.0611 0.0000 0.0000 30665.2656 -117905.4575 298.1493 -148570.7231 -117860.4334 299.8478 12.3695 36.4363 497057.0913 -6.0668 -6.3878
ENERGY: 55000 1632.6445 2377.0282 3192.1528 0.0000 -176028.2583 20024.8343 0.0000 0.0000 30786.3871 -118015.2114 299.3270 -148801.5985 -117968.0584 298.7384 -92.1694 -72.8006 496673.5554 6.6143 6.5921
