Info: SIMULATION PARAMETERS:
Info: TIMESTEP               1
Info: NUMBER OF STEPS        0
Info: STEPS PER CYCLE        10
Info: PERIODIC CELL BASIS 1  72.449 0 0
Info: PERIODIC CELL BASIS 2  0 93.247 0
Info: PERIODIC CELL BASIS 3  0 0 79.185
Info: PERIODIC CELL CENTER   -0.248 -0.156 -0.047
Info: WRAPPING WATERS AROUND PERIODIC BOUNDARIES ON OUTPUT.
Info: WRAPPING ALL CLUSTERS AROUND PERIODIC BOUNDARIES ON OUTPUT.
Info: FIRST LDB TIMESTEP     50
Info: LAST LDB TIMESTEP     -1
Info: HOM BACKGROUND SCALING 1
Info: PME BACKGROUND SCALING 1
Info: MIN ATOMS PER PATCH    40
Info: VELOCITY FILE          ../replicas/rep119/equilibration/eq1.vel
Info: CENTER OF MASS MOVING INITIALLY? NO
Info: DIELECTRIC             1
Info: EXCLUDE                SCALED ONE-FOUR
Info: 1-4 ELECTROSTATICS SCALED BY 0.833333
Info: MODIFIED 1-4 VDW PARAMETERS WILL BE USED
Info: DCD FILENAME           ../replicas/rep119/equilibration/eq2.dcd
Info: DCD FREQUENCY          5000
Info: DCD FIRST STEP         5000
Info: DCD FILE WILL CONTAIN UNIT CELL DATA
Info: XST FILENAME           ../replicas/rep119/equilibration/eq2.xst
Info: XST FREQUENCY          5000
Info: NO VELOCITY DCD OUTPUT
Info: NO FORCE DCD OUTPUT
Info: OUTPUT FILENAME        ../replicas/rep119/equilibration/eq2
Info: RESTART FILENAME       ../replicas/rep119/equilibration/eq2.restart
Info: RESTART FREQUENCY      5000
Info: BINARY RESTART FILES WILL BE USED
Info: SWITCHING ACTIVE
Info: SWITCHING ON           10
Info: SWITCHING OFF          12
Info: PAIRLIST DISTANCE      13.5
Info: PAIRLIST SHRINK RATE   0.01
Info: PAIRLIST GROW RATE     0.01
Info: PAIRLIST TRIGGER       0.3
Info: PAIRLISTS PER CYCLE    2
Info: PAIRLISTS ENABLED
Info: MARGIN                 0.48
Info: HYDROGEN GROUP CUTOFF  2.5
Info: PATCH DIMENSION        16.48
Info: ENERGY OUTPUT STEPS    500
Info: CROSSTERM ENERGY INCLUDED IN DIHEDRAL
Info: TIMING OUTPUT STEPS    5000
Info: PRESSURE OUTPUT STEPS  500
Info: HARMONIC CONSTRAINTS ACTIVE
Info: HARMONIC CONS EXP      2
Info: HARMONIC CONS SCALING  10
Info: LANGEVIN DYNAMICS ACTIVE
Info: LANGEVIN TEMPERATURE   300
Info: LANGEVIN USING BBK INTEGRATOR
Info: LANGEVIN DAMPING COEFFICIENT IS 5 INVERSE PS
Info: LANGEVIN DYNAMICS NOT APPLIED TO HYDROGENS
Info: BERENDSEN PRESSURE COUPLING ACTIVE
Info:     TARGET PRESSURE IS 1 BAR
Info:     COMPRESSIBILITY ESTIMATE IS 4.57e-05 BAR^(-1)
Info:     RELAXATION TIME IS 100 FS
Info:     APPLIED EVERY 2 STEPS
Info:     PRESSURE CONTROL IS GROUP-BASED
Info:       CELL FLUCTUATION IS ISOTROPIC
Info: PARTICLE MESH EWALD (PME) ACTIVE
Info: PME TOLERANCE               1e-06
Info: PME EWALD COEFFICIENT       0.257952
Info: PME INTERPOLATION ORDER     4
Info: PME GRID DIMENSIONS         80 96 80
Info: PME MAXIMUM GRID SPACING    1
Info: FULL ELECTROSTATIC EVALUATION FREQUENCY      2
Info: USING VERLET I (r-RESPA) MTS SCHEME.
Info: C1 SPLITTING OF LONG RANGE ELECTROSTATICS
Info: PLACING ATOMS IN PATCHES BY HYDROGEN GROUPS
Info: RIGID BONDS TO HYDROGEN : WATER
Info:         ERROR TOLERANCE : 1e-05
Info:          MAX ITERATIONS : 100
Info: RIGID WATER USING SETTLE ALGORITHM
Info: RANDOM NUMBER SEED     1503694826
Info: USE HYDROGEN BONDS?    NO
Info: Using AMBER format force field!
Info: AMBER PARM FILE        ../build/complex.top
Info: COORDINATE PDB         ../replicas/rep119/equilibration/eq1.coor
Info: Exclusions in PARM file will be ignored!
Info: SCNB (VDW SCALING)     2
Info: USING ARITHMETIC MEAN TO COMBINE L-J SIGMA PARAMETERS
Info: SUMMARY OF PARAMETERS:
Info: 71 BONDS
Info: 145 ANGLES
Info: 76 DIHEDRAL
Info: 0 IMPROPER
Info: 0 CROSSTERM
Info: 0 VDW
Info: 190 VDW_PAIRS
Info: 0 NBTHOLE_PAIRS
Info: STRUCTURE SUMMARY:
Info: 49394 ATOMS
Info: 49448 BONDS
Info: 8698 ANGLES
Info: 18780 DIHEDRALS
Info: 0 IMPROPERS
Info: 0 CROSSTERMS
Info: 0 EXCLUSIONS
Info: 2336 CONSTRAINTS
Info: 44667 RIGID BONDS
Info: 103515 DEGREES OF FREEDOM
Info: 17225 HYDROGEN GROUPS
Info: 4 ATOMS IN LARGEST HYDROGEN GROUP
Info: 17225 MIGRATION GROUPS
Info: 4 ATOMS IN LARGEST MIGRATION GROUP
Info: TOTAL MASS = 301478 amu
Info: TOTAL CHARGE = 1.00115e-05 e
Info: MASS DENSITY = 0.935846 g/cm^3
Info: ATOM DENSITY = 0.0923345 atoms/A^3
Info: ADDED 70656 IMPLICIT EXCLUSIONS
Info: NONBONDED TABLE R-SQUARED SPACING: 0.0625
Info: NONBONDED TABLE SIZE: 769 POINTS
Info: REMOVING COM VELOCITY -0.00355131 0.0264236 -0.0275592
TCL: Running for 5000 steps
ETITLE: TS BOND ANGLE DIHED IMPRP ELECT VDW BOUNDARY MISC KINETIC TOTAL TEMP POTENTIAL TOTAL3 TEMPAVG PRESSURE GPRESSURE VOLUME PRESSAVG GPRESSAVG
ENERGY: 0 397.9793 1207.4068 2920.4371 0.0000 -212466.5671 29437.2583 0.0000 0.0000 10059.2895 -168444.1961 97.8035 -178503.4856 -168434.5335 97.8035 -2394.0481 -2495.9046 534946.2959 -2394.0481 -2495.9046
ENERGY: 1000 1259.3955 1999.9234 3107.1847 0.0000 -193826.3892 26701.6695 746.0367 0.0000 24177.1298 -135835.0496 235.0671 -160012.1794 -135814.0415 218.6160 -120.3121 -24.6801 522671.0178 -15.0094 -14.8240
ENERGY: 2000 1464.3749 2164.4386 3135.7081 0.0000 -184028.0164 23270.3600 785.9002 0.0000 27858.3430 -125348.8917 270.8584 -153207.2348 -125306.9839 264.7421 -2.0609 -16.5565 516631.2687 -25.5022 -25.4772
ENERGY: 3000 1486.0325 2246.8731 3171.5374 0.0000 -179650.0037 21972.6749 800.2315 0.0000 29457.5961 -120515.0581 286.4075 -149972.6542 -120468.6990 284.9297 -32.9916 -7.8225 509172.8307 -30.0270 -29.8629
ENERGY: 4000 1547.6274 2265.9007 3148.9436 0.0000 -176831.9799 20739.7881 795.6551 0.0000 30286.8454 -118047.2196 294.4701 -148334.0650 -118002.7091 293.4197 -58.0545 -13.9475 508155.4262 -1.7165 -1.8405
ENERGY: 5000 1579.8043 2242.8975 3164.0551 0.0000 -176288.3165 20652.2206 785.7995 0.0000 30485.9622 -117377.5773 296.4060 -147863.5394 -117330.2573 296.1827 -8.8146 12.7411 505275.7797 -3.3606 -3.3229
TCL: Setting parameter constraintScaling to 5.0
TCL: Running for 5000 steps
ETITLE: TS BOND ANGLE DIHED IMPRP ELECT VDW BOUNDARY MISC KINETIC TOTAL TEMP POTENTIAL TOTAL3 TEMPAVG PRESSURE GPRESSURE VOLUME PRESSAVG GPRESSAVG
ENERGY: 5000 1579.8043 2242.8975 3164.0551 0.0000 -176288.3165 20652.2206 392.8998 0.0000 30483.9363 -117772.5030 296.3863 -148256.4392 -117728.6885 296.3863 -72.6695 -36.2821 505275.7797 -72.6695 -36.2821
ENERGY: 6000 1588.6242 2231.6058 3159.0490 0.0000 -175756.3657 20354.0397 696.4801 0.0000 30608.9380 -117117.6290 297.6017 -147726.5670 -117079.1884 298.5525 -41.1610 -50.0647 503623.4830 -5.6019 -6.4986
ENERGY: 7000 1638.3797 2306.8575 3161.2781 0.0000 -175267.9386 20173.5171 658.8109 0.0000 30770.5424 -116558.5529 299.1729 -147329.0953 -116509.8348 299.6441 52.4905 28.9226 504714.5262 12.0396 11.9577
ENERGY: 8000 1596.7390 2266.0781 3199.3252 0.0000 -175440.7998 20325.5648 648.8461 0.0000 30766.2547 -116637.9919 299.1312 -147404.2466 -116600.8892 299.9070 -38.1440 -32.8237 503797.9514 3.7822 4.7501
ENERGY: 9000 1628.7744 2336.5291 3172.8169 0.0000 -176014.6557 20292.5106 629.9247 0.0000 30798.7837 -117155.3163 299.4475 -147954.1000 -117100.6894 299.2702 78.4641 -7.8499 502214.6628 4.6835 4.5436
ENERGY: 10000 1621.6650 2354.9732 3168.7853 0.0000 -175408.0203 19991.5313 662.9358 0.0000 30953.5607 -116654.5691 300.9523 -147608.1297 -116614.5020 299.0113 -10.8286 1.6622 502073.8881 -0.0381 0.0491
TCL: Setting parameter constraintScaling to 2.5
TCL: Running for 5000 steps
ETITLE: TS BOND ANGLE DIHED IMPRP ELECT VDW BOUNDARY MISC KINETIC TOTAL TEMP POTENTIAL TOTAL3 TEMPAVG PRESSURE GPRESSURE VOLUME PRESSAVG GPRESSAVG
ENERGY: 10000 1621.6650 2354.9732 3168.7853 0.0000 -175408.0203 19991.5313 331.4679 0.0000 30951.5254 -116988.0722 300.9325 -147939.5976 -116943.9398 300.9325 -128.4406 -118.1988 502073.8881 -128.4406 -118.1988
ENERGY: 11000 1598.2459 2337.7610 3181.2583 0.0000 -175600.8030 20193.3072 523.5592 0.0000 30961.6181 -116805.0535 301.0307 -147766.6715 -116763.1310 299.6977 -7.5394 32.5702 501299.7148 2.6080 2.7613
ENERGY: 12000 1659.0134 2276.1874 3178.9216 0.0000 -175757.8889 20384.0700 506.7621 0.0000 30985.5953 -116767.3393 301.2638 -147752.9346 -116724.2995 300.6372 7.1242 15.2945 500777.7282 2.4790 2.2135
ENERGY: 13000 1641.3775 2327.1719 3202.9439 0.0000 -175720.7734 20353.9908 527.4686 0.0000 30895.2998 -116772.5208 300.3859 -147667.8206 -116722.0783 300.3346 -45.8799 57.3591 500344.7454 -6.3355 -5.7611
ENERGY: 14000 1597.2591 2344.9035 3188.7168 0.0000 -175716.6548 19932.5058 507.9027 0.0000 30973.5434 -117171.8235 301.1466 -148145.3669 -117125.8872 299.2613 -23.7751 -15.2086 500330.1035 3.7783 4.2556
ENERGY: 15000 1577.9339 2313.9978 3162.9213 0.0000 -175246.8070 19881.5093 495.5763 0.0000 30801.8524 -117013.0159 299.4773 -147814.8684 -116966.6601 300.7006 -28.2851 17.4491 500648.8485 1.9081 2.1077
TCL: Setting parameter constraintScaling to 1.25
TCL: Running for 5000 steps
ETITLE: TS BOND ANGLE DIHED IMPRP ELECT VDW BOUNDARY MISC KINETIC TOTAL TEMP POTENTIAL TOTAL3 TEMPAVG PRESSURE GPRESSURE VOLUME PRESSAVG GPRESSAVG
ENERGY: 15000 1577.9339 2313.9978 3162.9213 0.0000 -175246.8070 19881.5093 247.7882 0.0000 30799.8094 -117262.8471 299.4575 -148062.6565 -117218.9150 299.4575 -87.5510 -37.2327 500648.8485 -87.5510 -37.2327
ENERGY: 16000 1681.0957 2329.3493 3150.0896 0.0000 -175783.5615 20296.8153 397.3016 0.0000 30884.8222 -117044.0878 300.2840 -147928.9100 -116988.9656 299.4571 3.3189 23.9777 499285.6602 -3.7457 -3.5124
ENERGY: 17000 1607.0248 2356.4969 3240.0192 0.0000 -175706.9936 19990.8848 407.7615 0.0000 30807.2267 -117297.5795 299.5296 -148104.8063 -117252.3856 299.8390 -73.7201 70.3796 497225.6386 -9.6455 -9.6702
ENERGY: 18000 1653.5530 2382.3847 3193.0956 0.0000 -176005.5073 20153.4342 413.7074 0.0000 30796.8046 -117412.5277 299.4282 -148209.3323 -117373.6163 299.4352 8.1167 37.8065 497258.0669 -7.6943 -7.7781
ENERGY: 19000 1654.6850 2414.6667 3214.1819 0.0000 -175692.8860 20024.7670 412.5606 0.0000 30862.3749 -117109.6499 300.0658 -147972.0248 -117062.3785 300.4221 -79.8208 -23.1367 498304.0693 -1.5298 -1.6442
ENERGY: 20000 1628.8720 2376.5083 3195.8735 0.0000 -175440.4223 19820.4489 413.1115 0.0000 30676.8456 -117328.7625 298.2619 -148005.6082 -117288.2385 299.3790 -53.0237 -53.8880 498697.3263 8.1767 7.6273
TCL: Setting parameter constraintScaling to 0.625
TCL: Running for 5000 steps
ETITLE: TS BOND ANGLE DIHED IMPRP ELECT VDW BOUNDARY MISC KINETIC TOTAL TEMP POTENTIAL TOTAL3 TEMPAVG PRESSURE GPRESSURE VOLUME PRESSAVG GPRESSAVG
ENERGY: 20000 1628.8720 2376.5083 3195.8735 0.0000 -175440.4223 19820.4489 206.5558 0.0000 30674.8152 -117537.3488 298.2422 -148212.1639 -117495.1727 298.2422 -125.3519 -131.2503 498697.3263 -125.3519 -131.2503
ENERGY: 21000 1639.2553 2427.1684 3197.4109 0.0000 -175807.4616 20123.9942 303.3335 0.0000 30885.3798 -117230.9194 300.2894 -148116.2992 -117181.2878 299.8186 34.1747 0.6674 498733.5424 7.7426 6.8510
ENERGY: 22000 1662.9826 2341.3803 3189.3378 0.0000 -175855.1979 20128.3275 317.8817 0.0000 31007.5965 -117207.6914 301.4777 -148215.2880 -117171.1435 300.3787 -35.9537 -62.3436 497471.9133 -8.6164 -8.8052
ENERGY: 23000 1613.6392 2394.8467 3225.7257 0.0000 -175907.1554 20324.5064 299.9291 0.0000 30824.2411 -117224.2672 299.6950 -148048.5083 -117184.2440 299.6361 36.7105 -4.3415 498051.7137 1.4903 0.9278
ENERGY: 24000 1583.1068 2388.5572 3210.0653 0.0000 -175113.2255 19880.9978 325.6923 0.0000 30618.2014 -117106.6046 297.6917 -147724.8060 -117068.8430 299.6382 44.1412 63.4824 497506.2713 0.9614 0.5628
ENERGY: 25000 1645.0231 2408.2536 3191.0445 0.0000 -175522.3055 19886.8238 309.2465 0.0000 30900.3828 -117181.5313 300.4353 -148081.9141 -117139.7577 300.5640 -62.4726 -48.6739 497841.8144 6.8045 6.5972
TCL: Setting parameter constraintScaling to 0.3125
TCL: Running for 5000 steps
ETITLE: TS BOND ANGLE DIHED IMPRP ELECT VDW BOUNDARY MISC KINETIC TOTAL TEMP POTENTIAL TOTAL3 TEMPAVG PRESSURE GPRESSURE VOLUME PRESSAVG GPRESSAVG
ENERGY: 25000 1645.0231 2408.2536 3191.0445 0.0000 -175522.3055 19886.8238 154.6232 0.0000 30898.3232 -117338.2141 300.4153 -148236.5373 -117292.3615 300.4153 -115.6017 -101.2798 497841.8144 -115.6017 -101.2798
ENERGY: 26000 1664.8149 2507.3587 3170.7892 0.0000 -175849.3611 20066.3181 247.9539 0.0000 30615.6631 -117576.4631 297.6671 -148192.1263 -117537.0029 299.8021 -25.2186 -26.4645 498439.9658 2.7923 2.2641
ENERGY: 27000 1627.8304 2448.0566 3206.5104 0.0000 -175862.1793 20101.7323 246.9806 0.0000 31021.9893 -117209.0798 301.6176 -148231.0690 -117155.6330 300.1291 15.8344 -22.1174 499002.5707 11.2097 11.6236
ENERGY: 28000 1649.0497 2401.9864 3228.2257 0.0000 -176176.8460 20038.9853 271.6147 0.0000 31027.3884 -117559.5959 301.6701 -148586.9842 -117524.7748 299.7333 26.4345 18.6776 498508.3699 1.6205 1.1633
ENERGY: 29000 1692.9602 2386.8402 3229.3495 0.0000 -175991.3214 20134.3624 245.3039 0.0000 30788.2270 -117514.2783 299.3448 -148302.5054 -117475.0684 299.7041 -1.5800 61.4781 498010.7371 -1.8445 -1.9412
ENERGY: 30000 1572.9540 2410.4577 3224.0234 0.0000 -175944.8183 20065.1846 264.3016 0.0000 30703.7221 -117704.1748 298.5232 -148407.8969 -117661.7753 299.7117 -4.0937 11.2378 497074.9714 1.8466 1.3124
TCL: Setting parameter constraintScaling to 0.15625
TCL: Running for 5000 steps
ETITLE: TS BOND ANGLE DIHED IMPRP ELECT VDW BOUNDARY MISC KINETIC TOTAL TEMP POTENTIAL TOTAL3 TEMPAVG PRESSURE GPRESSURE VOLUME PRESSAVG GPRESSAVG
ENERGY: 30000 1572.9540 2410.4577 3224.0234 0.0000 -175944.8183 20065.1846 132.1508 0.0000 30701.7072 -117838.3405 298.5036 -148540.0477 -117792.2622 298.5036 -28.1648 -22.4031 497074.9714 -28.1648 -22.4031
ENERGY: 31000 1629.6113 2429.9224 3239.9695 0.0000 -176094.0623 20094.2768 180.9316 0.0000 31142.5001 -117376.8505 302.7893 -148519.3506 -117332.5772 299.7111 -30.9084 -52.4192 498236.1679 -0.6002 -0.1732
ENERGY: 32000 1624.6371 2405.9245 3155.4081 0.0000 -175596.5576 19858.0345 180.0565 0.0000 30782.0008 -117590.4960 299.2843 -148372.4968 -117553.5088 299.2726 -101.1408 -34.5776 496852.9153 -6.1140 -5.6533
ENERGY: 33000 1616.1477 2434.9515 3176.2728 0.0000 -175871.2330 20038.8780 197.1962 0.0000 30835.6820 -117572.1049 299.8062 -148407.7869 -117514.5642 300.4187 25.4465 54.9289 497799.0060 6.4251 6.5087
ENERGY: 34000 1608.8357 2402.9655 3195.3941 0.0000 -175745.7954 20013.5503 196.3920 0.0000 30794.3483 -117534.3096 299.4044 -148328.6579 -117486.0428 300.0992 134.9676 76.7851 498655.1446 10.5719 10.8397
ENERGY: 35000 1613.1458 2414.8290 3216.7083 0.0000 -175825.8117 20159.9151 202.8975 0.0000 30742.2810 -117476.0349 298.8981 -148218.3159 -117425.9260 300.8808 -16.4771 16.3963 498059.3390 -2.4148 -2.4701
TCL: Setting parameter constraintScaling to 0.078125
TCL: Running for 5000 steps
ETITLE: TS BOND ANGLE DIHED IMPRP ELECT VDW BOUNDARY MISC KINETIC TOTAL TEMP POTENTIAL TOTAL3 TEMPAVG PRESSURE GPRESSURE VOLUME PRESSAVG GPRESSAVG
ENERGY: 35000 1613.1458 2414.8290 3216.7083 0.0000 -175825.8117 20159.9151 101.4488 0.0000 30740.2130 -117579.5516 298.8780 -148319.7646 -117535.2561 298.8780 -52.1676 -17.3059 498059.3390 -52.1676 -17.3059
ENERGY: 36000 1534.3040 2420.3102 3212.1368 0.0000 -175731.5496 20037.5931 152.8279 0.0000 30779.4674 -117594.9102 299.2597 -148374.3776 -117551.6576 299.1279 -55.8275 -43.4754 497042.9298 -10.6602 -10.8315
ENERGY: 37000 1600.2068 2412.3042 3212.4884 0.0000 -175812.3075 19982.8738 154.9733 0.0000 30751.6336 -117697.8274 298.9891 -148449.4610 -117656.9156 299.3340 102.4052 -6.5375 497025.0873 -0.3156 -0.0120
ENERGY: 38000 1626.4733 2453.0163 3224.8060 0.0000 -175877.1370 20026.5522 137.8344 0.0000 30781.7743 -117626.6804 299.2821 -148408.4548 -117584.2201 299.1126 -51.4621 -47.8284 496682.5011 -3.0290 -3.7405
ENERGY: 39000 1586.3064 2412.0315 3220.4390 0.0000 -175625.1749 20042.4620 160.7437 0.0000 30783.3310 -117419.8613 299.2972 -148203.1923 -117376.0514 300.1310 53.5117 73.2119 497830.6885 2.3488 2.4986
ENERGY: 40000 1697.3334 2421.8791 3212.8878 0.0000 -175836.9309 20101.5307 170.6823 0.0000 30831.3829 -117401.2346 299.7644 -148232.6176 -117352.5545 300.6641 -56.9746 -1.2607 496675.2796 -16.4724 -16.1084
TCL: Setting parameter constraintScaling to 0.0390625
TCL: Running for 5000 steps
ETITLE: TS BOND ANGLE DIHED IMPRP ELECT VDW BOUNDARY MISC KINETIC TOTAL TEMP POTENTIAL TOTAL3 TEMPAVG PRESSURE GPRESSURE VOLUME PRESSAVG GPRESSAVG
ENERGY: 40000 1697.3334 2421.8791 3212.8878 0.0000 -175836.9309 20101.5307 85.3412 0.0000 30829.3455 -117488.6132 299.7446 -148317.9588 -117445.8617 299.7446 -78.5664 -21.3012 496675.2796 -78.5664 -21.3012
ENERGY: 41000 1624.3625 2355.3705 3216.7073 0.0000 -175678.5191 20004.2166 101.5431 0.0000 30791.1459 -117585.1732 299.3732 -148376.3191 -117543.9905 299.9430 -71.1263 -77.4486 497603.7155 3.9810 4.0361
ENERGY: 42000 1677.5132 2369.8906 3218.2306 0.0000 -176591.3610 20346.8810 105.4008 0.0000 30811.4507 -118061.9941 299.5706 -148873.4448 -118019.6359 299.5661 -89.8058 -20.4891 496962.1628 -12.4247 -12.2367
ENERGY: 43000 1656.9830 2374.0348 3227.3729 0.0000 -176175.8548 20244.2517 115.6292 0.0000 31007.7693 -117549.8139 301.4794 -148557.5832 -117507.4993 299.9114 21.1581 35.5677 497338.1727 5.8604 6.0011
ENERGY: 44000 1677.3176 2315.2036 3257.0083 0.0000 -175644.6265 20076.7443 123.6777 0.0000 30744.3272 -117450.3478 298.9180 -148194.6750 -117406.1740 299.5186 -52.3131 -46.0388 497187.5354 9.2513 9.0065
ENERGY: 45000 1582.5376 2368.8597 3221.0320 0.0000 -175731.3265 20005.1866 126.4583 0.0000 30595.4166 -117831.8357 297.4702 -148427.2523 -117775.7669 299.1933 6.5372 15.9107 497365.7450 6.4578 6.3732
TCL: Setting parameter constraintScaling to 0.01953125
TCL: Running for 5000 steps
ETITLE: TS BOND ANGLE DIHED IMPRP ELECT VDW BOUNDARY MISC KINETIC TOTAL TEMP POTENTIAL TOTAL3 TEMPAVG PRESSURE GPRESSURE VOLUME PRESSAVG GPRESSAVG
ENERGY: 45000 1582.5376 2368.8597 3221.0320 0.0000 -175731.3265 20005.1866 63.2292 0.0000 30593.3974 -117897.0840 297.4506 -148490.4815 -117852.0520 297.4506 2.5639 6.6266 497365.7450 2.5639 6.6266
ENERGY: 46000 1629.9410 2379.8935 3211.4407 0.0000 -176298.7437 20055.4474 81.1851 0.0000 30862.5216 -118078.3143 300.0672 -148940.8360 -118028.4174 298.3519 36.9188 13.3456 495376.4998 -7.4563 -7.2328
ENERGY: 47000 1618.9920 2361.0400 3237.1747 0.0000 -176120.5295 20143.8132 77.0312 0.0000 30694.1899 -117988.2885 298.4305 -148682.4784 -117938.6318 298.6037 -82.7515 -106.5863 496099.2351 8.0615 8.0198
ENERGY: 48000 1614.6580 2453.8826 3204.5758 0.0000 -176273.4102 20223.4021 91.5657 0.0000 30718.5798 -117966.7462 298.6677 -148685.3259 -117928.9088 299.0195 43.4781 55.5517 494855.1014 -4.1546 -5.0062
ENERGY: 49000 1648.9752 2409.2838 3228.3464 0.0000 -176179.9281 20010.4236 88.6020 0.0000 30645.2658 -118149.0312 297.9549 -148794.2970 -118101.8493 298.6664 53.4936 53.7628 495100.6271 5.4928 4.8616
ENERGY: 50000 1645.0059 2416.7682 3196.7208 0.0000 -176552.8860 20349.2852 87.3377 0.0000 30643.2222 -118214.5460 297.9350 -148857.7682 -118158.3884 298.4316 67.3973 69.1806 496634.2836 15.4435 15.1726
TCL: Setting parameter constraintScaling to 0
TCL: Running for 5000 steps
ETITLE: TS BOND ANGLE DIHED IMPRP ELECT VDW BOUNDARY MISC KINETIC TOTAL TEMP POTENTIAL TOTAL3 TEMPAVG PRESSURE GPRESSURE VOLUME PRESSAVG GPRESSAVG
ENERGY: 50000 1645.0059 2416.7682 3196.7208 0.0000 -176552.8860 20349.2852 0.0000 0.0000 30641.1751 -118303.9309 297.9151 -148945.1059 -118259.6452 297.9151 41.5067 47.4564 496634.2836 41.5067 47.4564
ENERGY: 51000 1600.2058 2367.2741 3217.5752 0.0000 -176711.2849 20225.4883 0.0000 0.0000 30955.5972 -118345.1444 300.9721 -149300.7415 -118296.2398 298.5386 -67.1589 16.0064 495507.5804 -6.9824 -6.5275
ENERGY: 52000 1632.5480 2436.1874 3244.5977 0.0000 -176068.5656 19987.7031 0.0000 0.0000 30918.0318 -117849.4976 300.6069 -148767.5294 -117806.9109 300.4018 -75.9704 -23.9506 496903.6084 5.8359 5.7734
ENERGY: 53000 1664.0683 2371.2111 3208.6775 0.0000 -176153.9712 20127.6203 0.0000 0.0000 30974.9125 -117807.4814 301.1599 -148782.3940 -117757.2019 299.6510 -120.1781 -98.9048 497262.3610 -6.8323 -6.2397
ENERGY: 54000 1694.3170 2356.0332 3201.8150 0.0000 -175611.7591 19931.8300 0.0000 0.0000 30648.6011 -117779.1628 297.9873 -148427.7638 -117740.4972 299.4911 -107.1024 -57.8238 497247.0608 6.4084 6.5223
ENERGY: 55000 1604.6278 2398.8302 3201.3238 0.0000 -175569.7757 19772.5054 0.0000 0.0000 30993.9191 -117598.5693 301.3447 -148592.4885 -117551.6110 300.2379 -6.4917 -23.8490 496861.4832 -7.7502 -7.8997
