Info: SIMULATION PARAMETERS:
Info: TIMESTEP               1
Info: NUMBER OF STEPS        0
Info: STEPS PER CYCLE        10
Info: PERIODIC CELL BASIS 1  72.449 0 0
Info: PERIODIC CELL BASIS 2  0 93.247 0
Info: PERIODIC CELL BASIS 3  0 0 79.185
Info: PERIODIC CELL CENTER   -0.248 -0.156 -0.047
Info: WRAPPING WATERS AROUND PERIODIC BOUNDARIES ON OUTPUT.
Info: WRAPPING ALL CLUSTERS AROUND PERIODIC BOUNDARIES ON OUTPUT.
Info: FIRST LDB TIMESTEP     50
Info: LAST LDB TIMESTEP     -1
Info: HOM BACKGROUND SCALING 1
Info: PME BACKGROUND SCALING 1
Info: MIN ATOMS PER PATCH    40
Info: VELOCITY FILE          ../replicas/rep39/equilibration/eq1.vel
Info: CENTER OF MASS MOVING INITIALLY? NO
Info: DIELECTRIC             1
Info: EXCLUDE                SCALED ONE-FOUR
Info: 1-4 ELECTROSTATICS SCALED BY 0.833333
Info: MODIFIED 1-4 VDW PARAMETERS WILL BE USED
Info: DCD FILENAME           ../replicas/rep39/equilibration/eq2.dcd
Info: DCD FREQUENCY          5000
Info: DCD FIRST STEP         5000
Info: DCD FILE WILL CONTAIN UNIT CELL DATA
Info: XST FILENAME           ../replicas/rep39/equilibration/eq2.xst
Info: XST FREQUENCY          5000
Info: NO VELOCITY DCD OUTPUT
Info: NO FORCE DCD OUTPUT
Info: OUTPUT FILENAME        ../replicas/rep39/equilibration/eq2
Info: RESTART FILENAME       ../replicas/rep39/equilibration/eq2.restart
Info: RESTART FREQUENCY      5000
Info: BINARY RESTART FILES WILL BE USED
Info: SWITCHING ACTIVE
Info: SWITCHING ON           10
Info: SWITCHING OFF          12
Info: PAIRLIST DISTANCE      13.5
Info: PAIRLIST SHRINK RATE   0.01
Info: PAIRLIST GROW RATE     0.01
Info: PAIRLIST TRIGGER       0.3
Info: PAIRLISTS PER CYCLE    2
Info: PAIRLISTS ENABLED
Info: MARGIN                 0.48
Info: HYDROGEN GROUP CUTOFF  2.5
Info: PATCH DIMENSION        16.48
Info: ENERGY OUTPUT STEPS    500
Info: CROSSTERM ENERGY INCLUDED IN DIHEDRAL
Info: TIMING OUTPUT STEPS    5000
Info: PRESSURE OUTPUT STEPS  500
Info: HARMONIC CONSTRAINTS ACTIVE
Info: HARMONIC CONS EXP      2
Info: HARMONIC CONS SCALING  10
Info: LANGEVIN DYNAMICS ACTIVE
Info: LANGEVIN TEMPERATURE   300
Info: LANGEVIN USING BBK INTEGRATOR
Info: LANGEVIN DAMPING COEFFICIENT IS 5 INVERSE PS
Info: LANGEVIN DYNAMICS NOT APPLIED TO HYDROGENS
Info: BERENDSEN PRESSURE COUPLING ACTIVE
Info:     TARGET PRESSURE IS 1 BAR
Info:     COMPRESSIBILITY ESTIMATE IS 4.57e-05 BAR^(-1)
Info:     RELAXATION TIME IS 100 FS
Info:     APPLIED EVERY 2 STEPS
Info:     PRESSURE CONTROL IS GROUP-BASED
Info:       CELL FLUCTUATION IS ISOTROPIC
Info: PARTICLE MESH EWALD (PME) ACTIVE
Info: PME TOLERANCE               1e-06
Info: PME EWALD COEFFICIENT       0.257952
Info: PME INTERPOLATION ORDER     4
Info: PME GRID DIMENSIONS         80 96 80
Info: PME MAXIMUM GRID SPACING    1
Info: FULL ELECTROSTATIC EVALUATION FREQUENCY      2
Info: USING VERLET I (r-RESPA) MTS SCHEME.
Info: C1 SPLITTING OF LONG RANGE ELECTROSTATICS
Info: PLACING ATOMS IN PATCHES BY HYDROGEN GROUPS
Info: RIGID BONDS TO HYDROGEN : WATER
Info:         ERROR TOLERANCE : 1e-05
Info:          MAX ITERATIONS : 100
Info: RIGID WATER USING SETTLE ALGORITHM
Info: RANDOM NUMBER SEED     1503702113
Info: USE HYDROGEN BONDS?    NO
Info: Using AMBER format force field!
Info: AMBER PARM FILE        ../build/complex.top
Info: COORDINATE PDB         ../replicas/rep39/equilibration/eq1.coor
Info: Exclusions in PARM file will be ignored!
Info: SCNB (VDW SCALING)     2
Info: USING ARITHMETIC MEAN TO COMBINE L-J SIGMA PARAMETERS
Info: SUMMARY OF PARAMETERS:
Info: 71 BONDS
Info: 145 ANGLES
Info:   145 HARMONIC
Info:   0 COSINE-BASED
Info: 76 DIHEDRAL
Info: 0 IMPROPER
Info: 0 CROSSTERM
Info: 0 VDW
Info: 190 VDW_PAIRS
Info: 0 NBTHOLE_PAIRS
Info: STRUCTURE SUMMARY:
Info: 49394 ATOMS
Info: 49448 BONDS
Info: 8698 ANGLES
Info: 18780 DIHEDRALS
Info: 0 IMPROPERS
Info: 0 CROSSTERMS
Info: 0 EXCLUSIONS
Info: 2336 CONSTRAINTS
Info: 44667 RIGID BONDS
Info: 103515 DEGREES OF FREEDOM
Info: 17225 HYDROGEN GROUPS
Info: 4 ATOMS IN LARGEST HYDROGEN GROUP
Info: 17225 MIGRATION GROUPS
Info: 4 ATOMS IN LARGEST MIGRATION GROUP
Info: TOTAL MASS = 301478 amu
Info: TOTAL CHARGE = 1.00115e-05 e
Info: MASS DENSITY = 0.935846 g/cm^3
Info: ATOM DENSITY = 0.0923345 atoms/A^3
Info: ADDED 70656 IMPLICIT EXCLUSIONS
Info: NONBONDED TABLE R-SQUARED SPACING: 0.0625
Info: NONBONDED TABLE SIZE: 769 POINTS
Info: REMOVING COM VELOCITY 0.040843 0.00987845 -0.0149457
TCL: Running for 5000 steps
ETITLE: TS BOND ANGLE DIHED IMPRP ELECT VDW BOUNDARY MISC KINETIC TOTAL TEMP POTENTIAL TOTAL3 TEMPAVG PRESSURE GPRESSURE VOLUME PRESSAVG GPRESSAVG
ENERGY: 0 395.7973 1220.3729 2922.1902 0.0000 -212660.6697 29485.5252 0.0000 0.0000 10070.0714 -168566.7126 97.9083 -178636.7841 -168557.0093 97.9083 -2403.8221 -2504.7203 534946.2959 -2403.8221 -2504.7203
ENERGY: 1000 1222.9509 1972.3339 3123.0605 0.0000 -193624.1780 26571.3803 817.4880 0.0000 24045.8083 -135871.1561 233.7903 -159916.9644 -135845.0751 218.5636 -97.8715 -35.8439 521025.7407 -22.3382 -21.9583
ENERGY: 2000 1440.8811 2149.2495 3146.4609 0.0000 -184664.0634 23491.6648 792.4206 0.0000 28105.7494 -125537.6371 273.2639 -153643.3865 -125495.0016 263.9121 21.0791 -0.0655 514908.3133 -25.0076 -25.4074
ENERGY: 3000 1535.0543 2159.3903 3170.2777 0.0000 -179577.9408 21649.2112 794.2506 0.0000 29275.9662 -120993.7904 284.6416 -150269.7566 -120947.8719 282.7189 -56.4731 -57.2117 509320.3737 -14.4542 -14.3665
ENERGY: 4000 1530.9759 2249.9311 3156.1572 0.0000 -176710.3535 20671.0769 813.3332 0.0000 30182.9918 -118105.8874 293.4603 -148288.8792 -118060.2009 293.0702 -88.6495 -6.9697 506741.2731 -0.0006 0.5626
ENERGY: 5000 1544.7949 2225.4917 3145.8828 0.0000 -175858.6719 20298.9595 820.4475 0.0000 30638.0181 -117185.0775 297.8844 -147823.0955 -117129.9836 296.5976 23.3304 17.4279 504368.3763 -11.8407 -11.8085
TCL: Setting parameter constraintScaling to 5.0
TCL: Running for 5000 steps
ETITLE: TS BOND ANGLE DIHED IMPRP ELECT VDW BOUNDARY MISC KINETIC TOTAL TEMP POTENTIAL TOTAL3 TEMPAVG PRESSURE GPRESSURE VOLUME PRESSAVG GPRESSAVG
ENERGY: 5000 1544.7949 2225.4917 3145.8828 0.0000 -175858.6719 20298.9595 410.2238 0.0000 30635.9913 -117597.3280 297.8647 -148233.3193 -117554.2406 297.8647 -107.6441 -117.9519 504368.3763 -107.6441 -117.9519
ENERGY: 6000 1582.3217 2279.8735 3171.4576 0.0000 -175496.3429 20201.7582 644.2305 0.0000 30573.8871 -117042.8143 297.2609 -147616.7014 -117003.4924 297.2309 108.9146 9.2782 505471.8980 3.8959 3.1154
ENERGY: 7000 1623.9626 2334.1683 3180.9360 0.0000 -175920.5412 20491.4147 636.0726 0.0000 30787.8976 -116866.0895 299.3416 -147653.9871 -116818.1426 298.3186 -3.9914 15.1131 502574.2279 -12.3899 -12.6352
ENERGY: 8000 1585.4477 2315.3776 3170.2552 0.0000 -175635.7002 20210.9375 616.3423 0.0000 30875.0010 -116862.3389 300.1885 -147737.3399 -116821.6961 298.2627 -75.0435 -40.5627 503023.1763 3.4488 3.3168
ENERGY: 9000 1595.1599 2347.5239 3167.8500 0.0000 -175623.3739 20001.2702 678.0647 0.0000 30693.9384 -117139.5669 298.4281 -147833.5053 -117082.1327 299.1197 -127.0860 -62.8698 500856.1674 1.3357 1.3653
ENERGY: 10000 1580.9858 2324.9161 3163.6331 0.0000 -175596.0762 20111.5796 628.4921 0.0000 30918.9328 -116867.5367 300.6157 -147786.4695 -116826.5321 300.2044 68.9098 -2.3161 501154.5890 -1.4251 -1.9909
TCL: Setting parameter constraintScaling to 2.5
TCL: Running for 5000 steps
ETITLE: TS BOND ANGLE DIHED IMPRP ELECT VDW BOUNDARY MISC KINETIC TOTAL TEMP POTENTIAL TOTAL3 TEMPAVG PRESSURE GPRESSURE VOLUME PRESSAVG GPRESSAVG
ENERGY: 10000 1580.9858 2324.9161 3163.6331 0.0000 -175596.0762 20111.5796 314.2461 0.0000 30916.8614 -117183.8541 300.5955 -148100.7155 -117134.3848 300.5955 8.9020 -66.3269 501154.5890 8.9020 -66.3269
ENERGY: 11000 1697.8811 2344.4575 3193.9319 0.0000 -175921.1344 20360.8058 529.2991 0.0000 30731.3948 -117063.3642 298.7923 -147794.7590 -117010.3762 300.4788 -50.7889 -21.9872 500486.4001 -2.1267 -2.0545
ENERGY: 12000 1623.5684 2333.8133 3193.1162 0.0000 -175977.5067 20207.4503 528.3814 0.0000 30649.5169 -117441.6601 297.9962 -148091.1770 -117381.3983 299.5059 -69.6784 -30.1817 500376.4582 -12.8646 -12.7000
ENERGY: 13000 1643.4740 2316.0387 3184.0433 0.0000 -175904.7903 20166.0405 526.3177 0.0000 30941.9076 -117126.9683 300.8390 -148068.8760 -117087.7060 298.4560 -22.5811 16.9544 500871.0741 -13.8919 -14.2441
ENERGY: 14000 1570.2852 2348.2820 3203.8826 0.0000 -175691.1236 20101.8117 497.7542 0.0000 30869.8031 -117099.3048 300.1380 -147969.1079 -117056.5468 299.4975 -57.8600 28.2019 500968.4268 -3.5461 -3.9933
ENERGY: 15000 1618.2825 2378.4612 3178.6874 0.0000 -175847.9202 20148.2898 515.7811 0.0000 30725.2613 -117283.1569 298.7326 -148008.4181 -117238.1823 298.8403 -29.9709 -29.9414 498900.0118 -15.0026 -14.9412
TCL: Setting parameter constraintScaling to 1.25
TCL: Running for 5000 steps
ETITLE: TS BOND ANGLE DIHED IMPRP ELECT VDW BOUNDARY MISC KINETIC TOTAL TEMP POTENTIAL TOTAL3 TEMPAVG PRESSURE GPRESSURE VOLUME PRESSAVG GPRESSAVG
ENERGY: 15000 1618.2825 2378.4612 3178.6874 0.0000 -175847.9202 20148.2898 257.8906 0.0000 30723.1936 -117543.1151 298.7125 -148266.3087 -117500.5464 298.7125 -77.1292 -79.2589 498900.0118 -77.1292 -79.2589
ENERGY: 16000 1653.6967 2396.6899 3170.1843 0.0000 -175906.3499 20084.6615 395.7033 0.0000 30961.0546 -117244.3596 301.0252 -148205.4142 -117209.1083 299.1404 -120.1938 -36.1371 499456.9090 4.6649 4.0492
ENERGY: 17000 1612.6102 2422.7971 3214.3208 0.0000 -175629.2262 20083.0009 390.3365 0.0000 30736.3534 -117169.8071 298.8405 -147906.1605 -117117.0143 300.6705 -89.4153 8.6175 500163.9831 3.8464 3.9239
ENERGY: 18000 1636.5116 2365.7598 3222.9451 0.0000 -175847.6227 20065.4589 408.9946 0.0000 30742.1729 -117405.7799 298.8971 -148147.9528 -117366.9097 299.4804 -96.6358 -24.6793 499655.4607 2.7867 2.3628
ENERGY: 19000 1698.6196 2365.9603 3215.3990 0.0000 -175786.1134 20081.1284 394.3291 0.0000 30729.5815 -117301.0955 298.7746 -148030.6770 -117264.5246 299.4061 81.1170 -49.9344 497186.9962 -19.4146 -19.0891
ENERGY: 20000 1508.3364 2421.6582 3172.9071 0.0000 -176061.0397 20249.7412 404.2247 0.0000 30789.6832 -117514.4888 299.3590 -148304.1721 -117476.3080 299.0516 -14.9852 32.3103 498090.2181 6.3578 6.3271
TCL: Setting parameter constraintScaling to 0.625
TCL: Running for 5000 steps
ETITLE: TS BOND ANGLE DIHED IMPRP ELECT VDW BOUNDARY MISC KINETIC TOTAL TEMP POTENTIAL TOTAL3 TEMPAVG PRESSURE GPRESSURE VOLUME PRESSAVG GPRESSAVG
ENERGY: 20000 1508.3364 2421.6582 3172.9071 0.0000 -176061.0397 20249.7412 202.1123 0.0000 30787.6294 -117718.6550 299.3390 -148506.2844 -117672.1319 299.3390 -16.7935 32.1246 498090.2181 -16.7935 32.1246
ENERGY: 21000 1659.3614 2297.1851 3203.3809 0.0000 -175496.7819 20089.1316 299.1794 0.0000 30748.3559 -117200.1878 298.9572 -147948.5436 -117151.1620 299.3842 25.6591 70.2793 498826.7804 12.3742 12.4319
ENERGY: 22000 1635.7958 2432.2328 3231.5789 0.0000 -175980.5737 20157.3466 318.8916 0.0000 30814.1461 -117390.5817 299.5968 -148204.7278 -117336.9995 300.0498 35.8196 25.3587 497749.3226 -10.9670 -11.0818
ENERGY: 23000 1602.0910 2398.9146 3216.9050 0.0000 -175500.3452 19938.5863 313.2667 0.0000 30777.3459 -117253.2357 299.2390 -148030.5816 -117205.9517 299.8574 -97.1363 15.1749 497489.1058 1.3018 1.3196
ENERGY: 24000 1575.6989 2429.1523 3201.8088 0.0000 -175605.2896 19959.0096 331.3938 0.0000 30593.6868 -117514.5395 297.4534 -148108.2263 -117469.6007 299.3657 33.1281 119.5265 498531.3103 4.0916 3.8751
ENERGY: 25000 1649.7626 2377.7123 3216.5979 0.0000 -175762.0993 20140.5391 331.2566 0.0000 31009.1667 -117037.0641 301.4930 -148046.2307 -116989.3236 300.0095 -48.5799 23.0553 497393.4597 1.7010 1.6331
TCL: Setting parameter constraintScaling to 0.3125
TCL: Running for 5000 steps
ETITLE: TS BOND ANGLE DIHED IMPRP ELECT VDW BOUNDARY MISC KINETIC TOTAL TEMP POTENTIAL TOTAL3 TEMPAVG PRESSURE GPRESSURE VOLUME PRESSAVG GPRESSAVG
ENERGY: 25000 1649.7626 2377.7123 3216.5979 0.0000 -175762.0993 20140.5391 165.6283 0.0000 31007.1195 -117204.7395 301.4731 -148211.8590 -117162.0893 301.4731 -50.3358 27.0916 497393.4597 -50.3358 27.0916
ENERGY: 26000 1648.8449 2421.9753 3219.6432 0.0000 -175697.6687 19975.7558 252.3177 0.0000 30932.6722 -117246.4595 300.7492 -148179.1317 -117201.4374 299.1708 -125.3729 -22.4439 497089.3411 -11.8178 -11.6135
ENERGY: 27000 1622.8226 2388.2703 3225.1574 0.0000 -175890.0015 20138.4336 250.4086 0.0000 30842.8363 -117422.0727 299.8758 -148264.9090 -117384.2738 298.4671 8.8406 84.7462 496958.4561 -5.7995 -5.4696
ENERGY: 28000 1577.9377 2416.2835 3225.8885 0.0000 -175745.0996 19941.9858 245.5704 0.0000 30784.6394 -117552.7942 299.3100 -148337.4336 -117491.5790 299.2330 3.3945 34.3276 498110.9755 14.2795 14.5813
ENERGY: 29000 1604.6830 2357.1862 3191.3205 0.0000 -176024.6560 20225.9434 261.5718 0.0000 30680.2439 -117703.7072 298.2950 -148383.9511 -117654.2672 298.7241 -148.8316 -95.0556 498019.4482 -8.2251 -7.4387
ENERGY: 30000 1656.7156 2382.9216 3224.7155 0.0000 -175717.2162 20140.5898 254.8528 0.0000 30746.5276 -117310.8933 298.9394 -148057.4209 -117278.9842 299.6642 -8.5038 34.8386 498619.5882 -1.3615 -1.6257
TCL: Setting parameter constraintScaling to 0.15625
TCL: Running for 5000 steps
ETITLE: TS BOND ANGLE DIHED IMPRP ELECT VDW BOUNDARY MISC KINETIC TOTAL TEMP POTENTIAL TOTAL3 TEMPAVG PRESSURE GPRESSURE VOLUME PRESSAVG GPRESSAVG
ENERGY: 30000 1656.7156 2382.9216 3224.7155 0.0000 -175717.2162 20140.5898 127.4264 0.0000 30744.4759 -117440.3714 298.9195 -148184.8473 -117395.8289 298.9195 -20.0827 22.1866 498619.5882 -20.0827 22.1866
ENERGY: 31000 1619.5885 2402.1444 3232.7126 0.0000 -175895.5281 20165.2985 186.5327 0.0000 31113.2480 -117176.0035 302.5049 -148289.2514 -117138.8809 300.4507 -17.9873 -23.4783 498265.0632 -7.3251 -6.8492
ENERGY: 32000 1642.9191 2423.0315 3215.7141 0.0000 -175972.8236 20116.5093 203.3148 0.0000 30960.1041 -117411.2307 301.0160 -148371.3348 -117358.3814 299.8290 -0.5895 17.5394 498579.8057 -4.1062 -3.7997
ENERGY: 33000 1608.5603 2398.7341 3216.8934 0.0000 -175817.1242 20038.8583 194.0282 0.0000 30924.2978 -117435.7521 300.6678 -148360.0499 -117379.6603 299.7584 19.6827 49.2381 496532.5530 -0.2517 0.4012
ENERGY: 34000 1586.0581 2451.6213 3173.4411 0.0000 -176383.8554 20289.8948 208.9152 0.0000 30880.2583 -117793.6666 300.2396 -148673.9250 -117756.8645 299.7654 22.3265 14.4627 495598.2565 -2.4731 -2.8856
ENERGY: 35000 1659.2860 2387.9396 3238.2591 0.0000 -175867.8236 20073.5356 191.5739 0.0000 30841.6254 -117475.6040 299.8640 -148317.2294 -117424.3034 298.9912 -2.8413 17.4406 496143.8145 5.7311 6.6180
TCL: Setting parameter constraintScaling to 0.078125
TCL: Running for 5000 steps
ETITLE: TS BOND ANGLE DIHED IMPRP ELECT VDW BOUNDARY MISC KINETIC TOTAL TEMP POTENTIAL TOTAL3 TEMPAVG PRESSURE GPRESSURE VOLUME PRESSAVG GPRESSAVG
ENERGY: 35000 1659.2860 2387.9396 3238.2591 0.0000 -175867.8237 20073.5356 95.7869 0.0000 30839.5929 -117573.4235 299.8443 -148413.0164 -117534.8852 299.8443 10.1669 26.8765 496143.8145 10.1669 26.8765
ENERGY: 36000 1697.2089 2432.2536 3197.7807 0.0000 -175755.2713 19892.2822 152.2866 0.0000 30984.6326 -117398.8267 301.2544 -148383.4593 -117349.5555 300.8626 -150.0014 -41.1032 496264.3091 5.4163 5.7530
ENERGY: 37000 1603.3420 2434.6835 3220.2929 0.0000 -175753.7819 19978.3320 155.3642 0.0000 30966.4947 -117395.2727 301.0781 -148361.7674 -117346.8915 300.4466 -24.6106 -24.9550 497101.9863 -1.9448 -1.4482
ENERGY: 38000 1663.4885 2428.2921 3269.7106 0.0000 -175426.4798 19858.5509 164.7188 0.0000 30927.5290 -117114.1900 300.6992 -148041.7189 -117075.6296 300.4228 -27.2677 49.4528 496504.3749 -5.1349 -5.1367
ENERGY: 39000 1629.0906 2425.1496 3257.5807 0.0000 -175711.3686 20008.7907 164.7490 0.0000 31034.6226 -117191.3856 301.7405 -148226.0081 -117145.2833 301.1105 31.5637 -31.3601 497523.8087 5.8302 6.0937
ENERGY: 40000 1693.9532 2442.2123 3204.0829 0.0000 -175908.9614 20032.5153 157.0405 0.0000 30903.9815 -117475.1757 300.4703 -148379.1572 -117443.2079 299.9320 14.5629 4.0661 495961.8462 -1.1659 -1.5301
TCL: Setting parameter constraintScaling to 0.0390625
TCL: Running for 5000 steps
ETITLE: TS BOND ANGLE DIHED IMPRP ELECT VDW BOUNDARY MISC KINETIC TOTAL TEMP POTENTIAL TOTAL3 TEMPAVG PRESSURE GPRESSURE VOLUME PRESSAVG GPRESSAVG
ENERGY: 40000 1693.9532 2442.2123 3204.0829 0.0000 -175908.9614 20032.5153 78.5202 0.0000 30901.9385 -117555.7390 300.4504 -148457.6774 -117512.1198 300.4504 0.6379 -1.6200 495961.8462 0.6379 -1.6200
ENERGY: 41000 1666.0247 2386.8981 3208.3258 0.0000 -176082.2001 20170.1304 116.3178 0.0000 30832.9672 -117701.5360 299.7798 -148534.5032 -117641.7298 299.8114 37.7663 -7.1449 496830.8627 -3.5138 -3.5599
ENERGY: 42000 1658.3182 2427.0333 3215.0637 0.0000 -176314.4575 20399.0403 118.1943 0.0000 30748.6727 -117748.1350 298.9603 -148496.8077 -117702.7440 298.9455 60.8392 45.8584 498254.0583 19.1001 19.5549
ENERGY: 43000 1643.0219 2458.3347 3211.1433 0.0000 -176047.0383 20090.7825 123.9565 0.0000 31014.3380 -117505.4614 301.5433 -148519.7994 -117463.4170 299.4402 -86.8531 -34.9711 497079.5875 -6.4845 -6.2516
ENERGY: 44000 1656.0856 2482.3436 3215.8459 0.0000 -175855.1489 19934.2294 126.7809 0.0000 30957.4162 -117482.4473 300.9898 -148439.8634 -117435.4939 299.9221 -2.1591 82.9718 498636.9666 11.0795 10.5268
ENERGY: 45000 1606.9345 2401.0272 3228.8762 0.0000 -175964.3274 20240.7782 130.9906 0.0000 30964.8238 -117390.8970 301.0618 -148355.7208 -117342.8912 300.0896 3.3292 45.2614 498863.3127 3.8191 3.0665
TCL: Setting parameter constraintScaling to 0.01953125
TCL: Running for 5000 steps
ETITLE: TS BOND ANGLE DIHED IMPRP ELECT VDW BOUNDARY MISC KINETIC TOTAL TEMP POTENTIAL TOTAL3 TEMPAVG PRESSURE GPRESSURE VOLUME PRESSAVG GPRESSAVG
ENERGY: 45000 1606.9345 2401.0272 3228.8762 0.0000 -175964.3274 20240.7782 65.4953 0.0000 30962.7971 -117458.4190 301.0421 -148421.2161 -117416.8543 301.0421 1.2792 37.5832 498863.3127 1.2792 37.5832
ENERGY: 46000 1630.4849 2345.5064 3204.0725 0.0000 -175844.5610 20166.9033 74.0283 0.0000 30761.9397 -117661.6260 299.0893 -148423.5657 -117626.1878 299.3293 -31.8330 -20.3704 498109.1404 8.7422 8.4153
ENERGY: 47000 1635.7020 2369.3584 3293.1901 0.0000 -175826.9855 20151.7540 80.4046 0.0000 30599.5562 -117697.0201 297.5105 -148296.5763 -117652.4455 299.9232 14.4895 -8.7282 498392.5895 6.1055 6.3755
ENERGY: 48000 1644.6019 2473.1322 3216.6434 0.0000 -175468.3736 19922.9692 75.9207 0.0000 30655.9605 -117479.1457 298.0589 -148135.1062 -117415.5418 299.2192 80.6875 44.5676 498070.2092 -6.5869 -6.4850
ENERGY: 49000 1638.5261 2425.6594 3203.3901 0.0000 -175856.9767 20007.3507 82.4093 0.0000 30871.9573 -117627.6838 300.1589 -148499.6411 -117582.7496 300.2430 -19.3123 11.1969 495812.7818 4.6891 4.7987
ENERGY: 50000 1618.4328 2439.8808 3207.3902 0.0000 -175669.7719 20057.7109 84.4963 0.0000 30879.5977 -117382.2633 300.2332 -148261.8611 -117331.0640 299.8682 -1.1336 -13.1947 497572.7723 3.7847 3.3876
TCL: Setting parameter constraintScaling to 0
TCL: Running for 5000 steps
ETITLE: TS BOND ANGLE DIHED IMPRP ELECT VDW BOUNDARY MISC KINETIC TOTAL TEMP POTENTIAL TOTAL3 TEMPAVG PRESSURE GPRESSURE VOLUME PRESSAVG GPRESSAVG
ENERGY: 50000 1618.4328 2439.8808 3207.3902 0.0000 -175669.7719 20057.7109 0.0000 0.0000 30877.5517 -117468.8057 300.2133 -148346.3573 -117425.7530 300.2133 -16.2013 -26.2960 497572.7723 -16.2013 -26.2960
ENERGY: 51000 1604.0101 2406.5079 3278.4169 0.0000 -175713.4484 20035.1142 0.0000 0.0000 30672.0639 -117717.3353 298.2154 -148389.3992 -117672.7653 299.6006 -31.2325 -45.8051 497086.4084 -2.7094 -2.6454
ENERGY: 52000 1698.1133 2379.8004 3202.2665 0.0000 -176180.8723 20114.4065 0.0000 0.0000 30871.3256 -117914.9600 300.1528 -148786.2856 -117877.2600 298.5177 -212.5604 -80.4665 496401.5436 -3.7859 -2.9446
ENERGY: 53000 1593.6354 2412.8151 3219.4599 0.0000 -175908.9782 19883.3186 0.0000 0.0000 30735.2270 -118064.5222 298.8295 -148799.7492 -118026.3921 298.9747 -125.6843 -13.3998 496794.2781 5.7578 5.6076
ENERGY: 54000 1623.8250 2398.6994 3213.3263 0.0000 -175869.6371 20003.1551 0.0000 0.0000 31119.3480 -117511.2833 302.5642 -148630.6313 -117456.5756 300.8369 -106.1071 -4.9157 496263.3311 -13.7286 -13.0592
ENERGY: 55000 1632.8880 2411.3467 3226.0828 0.0000 -175570.4544 19979.0738 0.0000 0.0000 30740.2357 -117580.8274 298.8782 -148321.0631 -117538.9041 300.1643 -160.4990 -29.6398 495727.8640 -5.5950 -5.4243
