Info: SIMULATION PARAMETERS:
Info: TIMESTEP               1
Info: NUMBER OF STEPS        0
Info: STEPS PER CYCLE        10
Info: PERIODIC CELL BASIS 1  72.449 0 0
Info: PERIODIC CELL BASIS 2  0 93.247 0
Info: PERIODIC CELL BASIS 3  0 0 79.185
Info: PERIODIC CELL CENTER   -0.248 -0.156 -0.047
Info: WRAPPING WATERS AROUND PERIODIC BOUNDARIES ON OUTPUT.
Info: WRAPPING ALL CLUSTERS AROUND PERIODIC BOUNDARIES ON OUTPUT.
Info: FIRST LDB TIMESTEP     50
Info: LAST LDB TIMESTEP     -1
Info: HOM BACKGROUND SCALING 1
Info: PME BACKGROUND SCALING 1
Info: MIN ATOMS PER PATCH    40
Info: VELOCITY FILE          ../replicas/rep118/equilibration/eq1.vel
Info: CENTER OF MASS MOVING INITIALLY? NO
Info: DIELECTRIC             1
Info: EXCLUDE                SCALED ONE-FOUR
Info: 1-4 ELECTROSTATICS SCALED BY 0.833333
Info: MODIFIED 1-4 VDW PARAMETERS WILL BE USED
Info: DCD FILENAME           ../replicas/rep118/equilibration/eq2.dcd
Info: DCD FREQUENCY          5000
Info: DCD FIRST STEP         5000
Info: DCD FILE WILL CONTAIN UNIT CELL DATA
Info: XST FILENAME           ../replicas/rep118/equilibration/eq2.xst
Info: XST FREQUENCY          5000
Info: NO VELOCITY DCD OUTPUT
Info: NO FORCE DCD OUTPUT
Info: OUTPUT FILENAME        ../replicas/rep118/equilibration/eq2
Info: RESTART FILENAME       ../replicas/rep118/equilibration/eq2.restart
Info: RESTART FREQUENCY      5000
Info: BINARY RESTART FILES WILL BE USED
Info: SWITCHING ACTIVE
Info: SWITCHING ON           10
Info: SWITCHING OFF          12
Info: PAIRLIST DISTANCE      13.5
Info: PAIRLIST SHRINK RATE   0.01
Info: PAIRLIST GROW RATE     0.01
Info: PAIRLIST TRIGGER       0.3
Info: PAIRLISTS PER CYCLE    2
Info: PAIRLISTS ENABLED
Info: MARGIN                 0.48
Info: HYDROGEN GROUP CUTOFF  2.5
Info: PATCH DIMENSION        16.48
Info: ENERGY OUTPUT STEPS    500
Info: CROSSTERM ENERGY INCLUDED IN DIHEDRAL
Info: TIMING OUTPUT STEPS    5000
Info: PRESSURE OUTPUT STEPS  500
Info: HARMONIC CONSTRAINTS ACTIVE
Info: HARMONIC CONS EXP      2
Info: HARMONIC CONS SCALING  10
Info: LANGEVIN DYNAMICS ACTIVE
Info: LANGEVIN TEMPERATURE   300
Info: LANGEVIN USING BBK INTEGRATOR
Info: LANGEVIN DAMPING COEFFICIENT IS 5 INVERSE PS
Info: LANGEVIN DYNAMICS NOT APPLIED TO HYDROGENS
Info: BERENDSEN PRESSURE COUPLING ACTIVE
Info:     TARGET PRESSURE IS 1 BAR
Info:     COMPRESSIBILITY ESTIMATE IS 4.57e-05 BAR^(-1)
Info:     RELAXATION TIME IS 100 FS
Info:     APPLIED EVERY 2 STEPS
Info:     PRESSURE CONTROL IS GROUP-BASED
Info:       CELL FLUCTUATION IS ISOTROPIC
Info: PARTICLE MESH EWALD (PME) ACTIVE
Info: PME TOLERANCE               1e-06
Info: PME EWALD COEFFICIENT       0.257952
Info: PME INTERPOLATION ORDER     4
Info: PME GRID DIMENSIONS         80 96 80
Info: PME MAXIMUM GRID SPACING    1
Info: FULL ELECTROSTATIC EVALUATION FREQUENCY      2
Info: USING VERLET I (r-RESPA) MTS SCHEME.
Info: C1 SPLITTING OF LONG RANGE ELECTROSTATICS
Info: PLACING ATOMS IN PATCHES BY HYDROGEN GROUPS
Info: RIGID BONDS TO HYDROGEN : WATER
Info:         ERROR TOLERANCE : 1e-05
Info:          MAX ITERATIONS : 100
Info: RIGID WATER USING SETTLE ALGORITHM
Info: RANDOM NUMBER SEED     1503716227
Info: USE HYDROGEN BONDS?    NO
Info: Using AMBER format force field!
Info: AMBER PARM FILE        ../build/complex.top
Info: COORDINATE PDB         ../replicas/rep118/equilibration/eq1.coor
Info: Exclusions in PARM file will be ignored!
Info: SCNB (VDW SCALING)     2
Info: USING ARITHMETIC MEAN TO COMBINE L-J SIGMA PARAMETERS
Info: SUMMARY OF PARAMETERS:
Info: 71 BONDS
Info: 145 ANGLES
Info: 76 DIHEDRAL
Info: 0 IMPROPER
Info: 0 CROSSTERM
Info: 0 VDW
Info: 190 VDW_PAIRS
Info: 0 NBTHOLE_PAIRS
Info: STRUCTURE SUMMARY:
Info: 49394 ATOMS
Info: 49448 BONDS
Info: 8698 ANGLES
Info: 18780 DIHEDRALS
Info: 0 IMPROPERS
Info: 0 CROSSTERMS
Info: 0 EXCLUSIONS
Info: 2336 CONSTRAINTS
Info: 44667 RIGID BONDS
Info: 103515 DEGREES OF FREEDOM
Info: 17225 HYDROGEN GROUPS
Info: 4 ATOMS IN LARGEST HYDROGEN GROUP
Info: 17225 MIGRATION GROUPS
Info: 4 ATOMS IN LARGEST MIGRATION GROUP
Info: TOTAL MASS = 301478 amu
Info: TOTAL CHARGE = 1.00115e-05 e
Info: MASS DENSITY = 0.935846 g/cm^3
Info: ATOM DENSITY = 0.0923345 atoms/A^3
Info: ADDED 70656 IMPLICIT EXCLUSIONS
Info: NONBONDED TABLE R-SQUARED SPACING: 0.0625
Info: NONBONDED TABLE SIZE: 769 POINTS
Info: REMOVING COM VELOCITY 0.0231307 0.00110484 0.0164384
TCL: Running for 5000 steps
ETITLE: TS BOND ANGLE DIHED IMPRP ELECT VDW BOUNDARY MISC KINETIC TOTAL TEMP POTENTIAL TOTAL3 TEMPAVG PRESSURE GPRESSURE VOLUME PRESSAVG GPRESSAVG
ENERGY: 0 397.2950 1219.5260 2915.5414 0.0000 -212614.2044 29407.9236 0.0000 0.0000 10028.7102 -168645.2080 97.5062 -178673.9183 -168635.5787 97.5062 -2486.6706 -2583.9554 534946.2959 -2486.6706 -2583.9554
ENERGY: 1000 1254.4660 1967.6487 3110.3668 0.0000 -193666.4212 26502.8665 768.3225 0.0000 23962.0049 -136100.7458 232.9755 -160062.7508 -136076.1440 217.2958 3.3515 -38.0928 521498.2607 -20.4378 -20.1809
ENERGY: 2000 1427.5879 2138.5283 3137.5208 0.0000 -184822.3241 23615.9412 788.3556 0.0000 27827.9183 -125886.4720 270.5626 -153714.3904 -125843.2934 263.3802 -37.2122 -23.0137 515271.4735 -28.0047 -27.9619
ENERGY: 3000 1555.1386 2169.7549 3155.6523 0.0000 -179376.6869 21539.2389 799.2814 0.0000 29520.9096 -120636.7113 287.0231 -150157.6209 -120584.5182 284.4185 33.3774 30.6517 510709.9168 -8.4651 -8.7732
ENERGY: 4000 1511.4678 2237.4494 3112.3658 0.0000 -176857.9476 20962.3488 807.8745 0.0000 30394.8058 -117831.6355 295.5197 -148226.4413 -117785.5280 293.0706 17.5447 19.3539 507985.4610 -5.8418 -6.0040
ENERGY: 5000 1581.8858 2242.1153 3147.0034 0.0000 -175888.8515 20361.7823 827.7687 0.0000 30451.8600 -117276.4361 296.0744 -147728.2961 -117239.5825 297.5265 -39.6552 -14.7702 504703.4886 -17.5519 -17.1116
TCL: Setting parameter constraintScaling to 5.0
TCL: Running for 5000 steps
ETITLE: TS BOND ANGLE DIHED IMPRP ELECT VDW BOUNDARY MISC KINETIC TOTAL TEMP POTENTIAL TOTAL3 TEMPAVG PRESSURE GPRESSURE VOLUME PRESSAVG GPRESSAVG
ENERGY: 5000 1581.8858 2242.1153 3147.0034 0.0000 -175888.8515 20361.7823 413.8843 0.0000 30449.8094 -117692.3710 296.0545 -148142.1804 -117649.2116 296.0545 -125.6985 -99.2767 504703.4886 -125.6985 -99.2767
ENERGY: 6000 1594.2668 2283.0723 3133.1617 0.0000 -175409.4962 20097.5296 664.9150 0.0000 30729.4455 -116907.1054 298.7733 -147636.5509 -116858.3162 298.4084 -6.7096 34.6105 503655.1642 -10.9240 -10.8988
ENERGY: 7000 1595.5560 2231.0743 3151.2820 0.0000 -175485.3490 19913.2744 606.1872 0.0000 30844.1509 -117143.8242 299.8886 -147987.9751 -117090.7220 299.4607 20.4566 33.8002 504000.3747 10.5854 10.4678
ENERGY: 8000 1595.5113 2351.9375 3147.8896 0.0000 -175375.8521 20051.8015 641.8506 0.0000 30881.7178 -116705.1438 300.2538 -147586.8616 -116661.7646 299.4606 54.9438 29.0597 502237.0603 -4.0460 -4.2416
ENERGY: 9000 1639.8040 2318.5196 3159.3747 0.0000 -175635.1499 20027.5351 647.5922 0.0000 30980.9917 -116861.3326 301.2190 -147842.3243 -116819.6723 299.7712 30.1981 -34.9063 501109.1342 -3.5206 -3.8669
ENERGY: 10000 1589.2442 2265.6317 3169.5183 0.0000 -175754.0498 20255.1727 653.3136 0.0000 30684.6158 -117136.5534 298.3375 -147821.1692 -117087.4678 298.5415 -97.9736 -10.4668 500208.7422 -5.8610 -6.2447
TCL: Setting parameter constraintScaling to 2.5
TCL: Running for 5000 steps
ETITLE: TS BOND ANGLE DIHED IMPRP ELECT VDW BOUNDARY MISC KINETIC TOTAL TEMP POTENTIAL TOTAL3 TEMPAVG PRESSURE GPRESSURE VOLUME PRESSAVG GPRESSAVG
ENERGY: 10000 1589.2442 2265.6317 3169.5183 0.0000 -175754.0498 20255.1727 326.6568 0.0000 30682.5637 -117465.2623 298.3175 -148147.8260 -117420.7290 298.3175 -120.0920 -37.5189 500208.7422 -120.0920 -37.5189
ENERGY: 11000 1618.0751 2355.4606 3188.5954 0.0000 -175833.1548 20109.9235 516.0027 0.0000 30727.0792 -117318.0184 298.7503 -148045.0976 -117269.5289 298.8548 87.0167 24.5500 499608.8605 1.2950 1.2659
ENERGY: 12000 1598.4367 2396.7638 3149.7824 0.0000 -175646.7263 20018.6486 502.1211 0.0000 30541.6599 -117439.3139 296.9475 -147980.9738 -117397.4885 298.5250 -6.3153 17.7271 500082.4807 8.3597 7.8677
ENERGY: 13000 1616.6863 2328.8228 3191.7562 0.0000 -175847.0934 20111.7016 514.5966 0.0000 30733.1717 -117350.3582 298.8096 -148083.5299 -117310.7339 299.9580 -75.1317 -55.1009 498249.2670 -10.6086 -10.8651
ENERGY: 14000 1593.1159 2319.5688 3159.9562 0.0000 -176279.8026 20431.5858 514.8967 0.0000 30852.8965 -117407.7827 299.9736 -148260.6792 -117361.5479 300.0228 -33.3426 -36.6525 498321.9638 -6.7009 -7.3776
ENERGY: 15000 1622.6526 2371.8403 3184.4886 0.0000 -176145.2777 20209.0755 531.8951 0.0000 30821.7409 -117403.5848 299.6707 -148225.3256 -117360.3705 298.7059 -30.2250 55.2538 498866.5812 -3.3435 -3.0290
TCL: Setting parameter constraintScaling to 1.25
TCL: Running for 5000 steps
ETITLE: TS BOND ANGLE DIHED IMPRP ELECT VDW BOUNDARY MISC KINETIC TOTAL TEMP POTENTIAL TOTAL3 TEMPAVG PRESSURE GPRESSURE VOLUME PRESSAVG GPRESSAVG
ENERGY: 15000 1622.6526 2371.8403 3184.4886 0.0000 -176145.2777 20209.0755 265.9475 0.0000 30819.6887 -117671.5845 299.6507 -148491.2731 -117628.3324 299.6507 -50.7560 37.5011 498866.5812 -50.7560 37.5011
ENERGY: 16000 1667.0711 2312.4211 3146.3600 0.0000 -175977.0194 20234.5615 403.1416 0.0000 30566.2787 -117647.1853 297.1869 -148213.4640 -117608.1518 298.1702 13.9004 35.3438 499350.0642 7.4086 7.4754
ENERGY: 17000 1631.0444 2339.2248 3188.3011 0.0000 -176411.8985 20404.9782 390.8933 0.0000 30672.2510 -117785.2056 298.2172 -148457.4566 -117752.7421 298.2392 55.6500 34.0273 499022.1454 -1.9323 -2.1484
ENERGY: 18000 1642.7980 2342.1525 3197.6768 0.0000 -175886.7358 20089.3725 402.0815 0.0000 30756.3522 -117456.3023 299.0349 -148212.6544 -117402.2572 299.0297 -42.8501 -89.4275 497871.5806 -10.0804 -9.7223
ENERGY: 19000 1605.6586 2390.1761 3177.4730 0.0000 -176282.8872 20120.4932 405.6861 0.0000 30972.0867 -117611.3135 301.1325 -148583.4002 -117559.9571 299.0830 -116.7287 -21.6883 497374.7165 -5.5105 -5.1790
ENERGY: 20000 1637.2318 2368.6405 3171.7366 0.0000 -176063.7964 20204.4189 401.5316 0.0000 30746.8526 -117533.3843 298.9426 -148280.2369 -117489.6142 299.5613 63.7519 30.6485 498193.2785 2.8097 2.5106
TCL: Setting parameter constraintScaling to 0.625
TCL: Running for 5000 steps
ETITLE: TS BOND ANGLE DIHED IMPRP ELECT VDW BOUNDARY MISC KINETIC TOTAL TEMP POTENTIAL TOTAL3 TEMPAVG PRESSURE GPRESSURE VOLUME PRESSAVG GPRESSAVG
ENERGY: 20000 1637.2318 2368.6405 3171.7366 0.0000 -176063.7964 20204.4189 200.7658 0.0000 30744.8082 -117736.1945 298.9227 -148481.0027 -117694.7830 298.9227 50.6318 19.3976 498193.2785 50.6318 19.3976
ENERGY: 21000 1627.7086 2343.1972 3195.7504 0.0000 -176177.5851 20409.2579 320.5723 0.0000 30443.1643 -117837.9345 295.9899 -148281.0988 -117791.9128 298.1413 -15.3647 47.8530 498072.8203 10.0468 10.5529
ENERGY: 22000 1649.8143 2353.7698 3170.7306 0.0000 -176255.4612 20280.5479 329.3639 0.0000 30811.4372 -117659.7975 299.5705 -148471.2346 -117617.8953 298.9517 73.9150 62.4129 499337.5203 7.2916 7.3710
ENERGY: 23000 1659.5270 2417.9716 3211.2882 0.0000 -176110.5958 20407.6586 331.8163 0.0000 30823.1519 -117259.1823 299.6844 -148082.3342 -117228.5255 300.0682 39.8371 37.3179 497865.4615 -2.6137 -2.8992
ENERGY: 24000 1549.0253 2430.6566 3214.0115 0.0000 -175658.9852 20085.8888 334.1615 0.0000 30942.0265 -117103.2151 300.8402 -148045.2416 -117055.9006 299.6239 9.1174 65.3729 497966.5142 8.6460 8.6338
ENERGY: 25000 1607.1650 2426.1003 3203.7396 0.0000 -175993.2474 20200.5388 318.0068 0.0000 30818.9030 -117418.7940 299.6431 -148237.6970 -117387.3027 299.2013 58.7375 77.9368 497893.2633 -0.0786 -0.0596
TCL: Setting parameter constraintScaling to 0.3125
TCL: Running for 5000 steps
ETITLE: TS BOND ANGLE DIHED IMPRP ELECT VDW BOUNDARY MISC KINETIC TOTAL TEMP POTENTIAL TOTAL3 TEMPAVG PRESSURE GPRESSURE VOLUME PRESSAVG GPRESSAVG
ENERGY: 25000 1607.1650 2426.1003 3203.7396 0.0000 -175993.2474 20200.5388 159.0034 0.0000 30816.8520 -117579.8484 299.6232 -148396.7004 -117539.4255 299.6232 35.8185 65.4669 497893.2633 35.8185 65.4669
ENERGY: 26000 1637.6323 2344.3741 3204.5685 0.0000 -175933.4668 20153.3874 246.7431 0.0000 30592.0931 -117754.6681 297.4379 -148346.7613 -117707.8695 299.0392 -44.5428 28.1822 499369.4275 7.9633 8.1907
ENERGY: 27000 1593.0383 2384.5461 3252.7920 0.0000 -175892.6475 19877.3905 260.0807 0.0000 30910.2660 -117614.5339 300.5314 -148524.7998 -117573.7081 299.7019 -112.1301 -71.5094 498545.8815 2.3771 3.0758
ENERGY: 28000 1638.6856 2385.4110 3234.7118 0.0000 -176309.6566 20358.7944 274.8016 0.0000 30880.1803 -117537.0719 300.2389 -148417.2522 -117497.1576 299.0836 -110.9103 -64.4259 497801.9750 6.6099 6.3502
ENERGY: 29000 1625.5656 2409.7847 3181.0570 0.0000 -175855.6666 19984.1261 244.3416 0.0000 30701.0321 -117709.7595 298.4971 -148410.7916 -117680.0391 298.9402 -38.4362 -5.2030 496525.9792 -10.3275 -10.7923
ENERGY: 30000 1635.0987 2391.4389 3205.5571 0.0000 -175960.7664 20077.0168 255.5836 0.0000 30761.5239 -117634.5474 299.0852 -148396.0713 -117590.8169 298.7615 66.6125 -5.2764 498021.6406 5.1692 5.5070
TCL: Setting parameter constraintScaling to 0.15625
TCL: Running for 5000 steps
ETITLE: TS BOND ANGLE DIHED IMPRP ELECT VDW BOUNDARY MISC KINETIC TOTAL TEMP POTENTIAL TOTAL3 TEMPAVG PRESSURE GPRESSURE VOLUME PRESSAVG GPRESSAVG
ENERGY: 30000 1635.0987 2391.4389 3205.5571 0.0000 -175960.7664 20077.0168 127.7918 0.0000 30759.4862 -117764.3769 299.0654 -148523.8631 -117722.7552 299.0654 31.5080 -38.8362 498021.6406 31.5080 -38.8362
ENERGY: 31000 1622.9503 2432.5609 3241.4151 0.0000 -175806.5534 20020.3477 182.3102 0.0000 30681.0540 -117625.9153 298.3028 -148306.9694 -117589.1184 299.0512 14.9482 54.9369 497557.7135 -0.2244 -0.6620
ENERGY: 32000 1658.1278 2417.5428 3191.7859 0.0000 -175973.6447 20077.9225 178.9404 0.0000 30979.6489 -117469.6764 301.2060 -148449.3252 -117427.6063 299.9522 4.7263 -50.4916 496997.1868 8.4278 8.0407
ENERGY: 33000 1609.7736 2341.4814 3223.7471 0.0000 -175804.6792 20225.0837 178.7500 0.0000 30674.8032 -117551.0403 298.2421 -148225.8434 -117507.1243 299.3908 123.8183 18.1921 499166.4538 12.5770 12.2991
ENERGY: 34000 1668.0597 2374.5817 3229.8682 0.0000 -175430.0934 19948.3693 187.3150 0.0000 30708.9633 -117312.9361 298.5742 -148021.8994 -117264.9994 299.2516 15.8379 -41.4738 497620.6287 -12.4776 -12.2899
ENERGY: 35000 1593.2847 2442.8071 3225.4047 0.0000 -176042.1183 20041.8247 216.2073 0.0000 30807.1374 -117715.4524 299.5287 -148522.5898 -117669.6467 299.3444 -163.5190 -122.9216 496642.6670 3.4600 3.2950
TCL: Setting parameter constraintScaling to 0.078125
TCL: Running for 5000 steps
ETITLE: TS BOND ANGLE DIHED IMPRP ELECT VDW BOUNDARY MISC KINETIC TOTAL TEMP POTENTIAL TOTAL3 TEMPAVG PRESSURE GPRESSURE VOLUME PRESSAVG GPRESSAVG
ENERGY: 35000 1593.2847 2442.8071 3225.4047 0.0000 -176042.1183 20041.8247 108.1037 0.0000 30805.0659 -117825.6276 299.5086 -148630.6935 -117781.5538 299.5086 -198.1146 -142.3040 496642.6670 -198.1146 -142.3040
ENERGY: 36000 1655.5445 2398.6359 3249.7291 0.0000 -175721.2549 19816.3920 147.6101 0.0000 30831.8270 -117621.5164 299.7688 -148453.3434 -117578.7397 299.4202 -18.6858 11.5200 498021.4767 19.1066 19.5514
ENERGY: 37000 1643.0380 2440.1161 3209.6652 0.0000 -176126.8809 20155.4557 160.1618 0.0000 30899.7816 -117618.6625 300.4295 -148518.4441 -117571.4117 300.5949 -72.7199 -31.6275 498409.8833 8.1246 8.3311
ENERGY: 38000 1659.1896 2421.8945 3206.6195 0.0000 -176019.2407 20061.4518 157.8109 0.0000 30875.7560 -117636.5184 300.1959 -148512.2744 -117584.0476 299.1275 -17.6918 -4.5153 498958.3434 5.7354 5.2392
ENERGY: 39000 1631.9522 2434.1245 3209.8387 0.0000 -175988.1323 20132.0578 160.7635 0.0000 30476.0715 -117943.3241 296.3098 -148419.3957 -117907.2364 298.4312 65.3155 67.0947 497042.2950 0.3761 0.0585
ENERGY: 40000 1659.5650 2393.1539 3217.9237 0.0000 -176105.7225 20135.3108 168.9252 0.0000 30893.2717 -117637.5722 300.3662 -148530.8440 -117598.6108 299.0827 -60.9928 31.7029 497179.3701 1.4090 1.2837
TCL: Setting parameter constraintScaling to 0.0390625
TCL: Running for 5000 steps
ETITLE: TS BOND ANGLE DIHED IMPRP ELECT VDW BOUNDARY MISC KINETIC TOTAL TEMP POTENTIAL TOTAL3 TEMPAVG PRESSURE GPRESSURE VOLUME PRESSAVG GPRESSAVG
ENERGY: 40000 1659.5650 2393.1539 3217.9237 0.0000 -176105.7225 20135.3108 84.4626 0.0000 30891.2061 -117724.1005 300.3461 -148615.3066 -117683.6161 300.3461 -92.1451 14.1909 497179.3701 -92.1451 14.1909
ENERGY: 41000 1685.5530 2465.4001 3219.1770 0.0000 -175821.5937 19988.9000 111.5793 0.0000 30738.6538 -117612.3305 298.8629 -148350.9844 -117561.9626 298.7351 -62.0244 -47.2666 496790.3897 0.5952 0.5306
ENERGY: 42000 1646.8113 2446.7686 3196.5838 0.0000 -175676.8450 20017.2050 119.5724 0.0000 30821.1528 -117428.7511 299.6650 -148249.9039 -117389.8914 299.8992 -1.0132 -7.3992 497200.4993 1.2427 1.0184
ENERGY: 43000 1618.8395 2481.0759 3199.9311 0.0000 -175436.0603 19935.0811 120.7346 0.0000 31052.1817 -117028.2164 301.9112 -148080.3982 -116987.7026 301.1670 42.4005 81.7217 497244.2061 11.1901 11.0060
ENERGY: 44000 1657.5830 2374.0870 3234.0800 0.0000 -175652.9945 19897.0959 115.8975 0.0000 31228.7733 -117145.4779 303.6281 -148374.2512 -117099.8090 301.2325 -65.9949 -87.8132 498840.5280 6.5658 6.5369
ENERGY: 45000 1672.9420 2437.0306 3183.8170 0.0000 -175446.2106 19975.2306 122.6079 0.0000 31025.3793 -117029.2032 301.6506 -148054.5825 -116978.6690 300.8578 -68.1933 -53.6949 498467.3967 5.6997 6.0604
TCL: Setting parameter constraintScaling to 0.01953125
TCL: Running for 5000 steps
ETITLE: TS BOND ANGLE DIHED IMPRP ELECT VDW BOUNDARY MISC KINETIC TOTAL TEMP POTENTIAL TOTAL3 TEMPAVG PRESSURE GPRESSURE VOLUME PRESSAVG GPRESSAVG
ENERGY: 45000 1672.9420 2437.0306 3183.8170 0.0000 -175446.2106 19975.2306 61.3040 0.0000 31023.3319 -117092.5546 301.6307 -148115.8865 -117053.0371 301.6307 -77.0959 -60.3123 498467.3967 -77.0959 -60.3123
ENERGY: 46000 1671.7871 2452.8297 3229.2181 0.0000 -175587.0631 19930.5828 75.6319 0.0000 30925.2816 -117301.7320 300.6774 -148227.0135 -117252.2353 300.4431 -76.4450 -12.2098 496383.7958 -11.5130 -11.7013
ENERGY: 47000 1644.3010 2413.9874 3219.1851 0.0000 -175550.0093 19817.4840 75.0163 0.0000 30811.4781 -117568.5572 299.5709 -148380.0353 -117522.2016 299.4871 -90.0475 -77.5490 495709.6693 -8.1879 -7.7040
ENERGY: 48000 1649.0974 2415.5922 3194.8573 0.0000 -175840.9923 19906.8104 85.0757 0.0000 30814.4727 -117775.0867 299.6000 -148589.5594 -117724.0639 299.8835 -4.2706 -45.2841 496054.9216 8.8238 8.9540
ENERGY: 49000 1667.0047 2389.0447 3234.2634 0.0000 -176146.7702 20202.1823 89.3913 0.0000 30862.1804 -117702.7034 300.0639 -148564.8838 -117659.6209 299.8103 15.2347 133.8936 495938.5603 -2.0107 -1.9189
ENERGY: 50000 1604.5694 2407.8686 3145.4185 0.0000 -175974.4301 20073.1632 94.7804 0.0000 30530.2687 -118118.3614 296.8368 -148648.6301 -118076.0138 298.7767 -80.3802 -25.0760 497759.5839 12.5596 12.1622
TCL: Setting parameter constraintScaling to 0
TCL: Running for 5000 steps
ETITLE: TS BOND ANGLE DIHED IMPRP ELECT VDW BOUNDARY MISC KINETIC TOTAL TEMP POTENTIAL TOTAL3 TEMPAVG PRESSURE GPRESSURE VOLUME PRESSAVG GPRESSAVG
ENERGY: 50000 1604.5694 2407.8686 3145.4185 0.0000 -175974.4301 20073.1632 0.0000 0.0000 30528.2222 -118215.1883 296.8169 -148743.4105 -118171.8856 296.8169 -95.2637 -37.2316 497759.5839 -95.2637 -37.2316
ENERGY: 51000 1697.9237 2384.6748 3201.1254 0.0000 -176186.9790 20063.1614 0.0000 0.0000 30784.2754 -118055.8183 299.3064 -148840.0937 -118010.0148 298.4139 -155.7129 -23.3568 495853.6037 -12.1831 -12.4342
ENERGY: 52000 1691.6115 2403.1116 3219.3152 0.0000 -176207.4970 20099.3139 0.0000 0.0000 30912.6423 -117881.5025 300.5545 -148794.1448 -117827.9988 299.5847 -57.0917 -2.2261 496450.0620 -2.7983 -2.3264
ENERGY: 53000 1655.1694 2390.5691 3173.7719 0.0000 -176060.1018 20060.8194 0.0000 0.0000 30886.0682 -117893.7038 300.2961 -148779.7720 -117858.7264 299.3173 -208.0574 -23.3661 497330.6040 5.5897 4.7357
ENERGY: 54000 1673.1220 2409.0583 3228.0650 0.0000 -175479.2785 19855.0750 0.0000 0.0000 30884.6274 -117429.3307 300.2821 -148313.9580 -117381.4676 300.1188 57.7554 37.3816 497116.9394 0.9252 1.3107
ENERGY: 55000 1630.4474 2415.9127 3227.9178 0.0000 -175920.8048 20132.2718 0.0000 0.0000 30810.6610 -117703.5941 299.5630 -148514.2551 -117659.4887 300.4400 141.1013 77.2302 496660.6529 3.3418 3.6610
