Info: SIMULATION PARAMETERS:
Info: TIMESTEP               1
Info: NUMBER OF STEPS        0
Info: STEPS PER CYCLE        10
Info: PERIODIC CELL BASIS 1  72.449 0 0
Info: PERIODIC CELL BASIS 2  0 93.247 0
Info: PERIODIC CELL BASIS 3  0 0 79.185
Info: PERIODIC CELL CENTER   -0.248 -0.156 -0.047
Info: WRAPPING WATERS AROUND PERIODIC BOUNDARIES ON OUTPUT.
Info: WRAPPING ALL CLUSTERS AROUND PERIODIC BOUNDARIES ON OUTPUT.
Info: FIRST LDB TIMESTEP     50
Info: LAST LDB TIMESTEP     -1
Info: HOM BACKGROUND SCALING 1
Info: PME BACKGROUND SCALING 1
Info: MIN ATOMS PER PATCH    40
Info: VELOCITY FILE          ../replicas/rep14/equilibration/eq1.vel
Info: CENTER OF MASS MOVING INITIALLY? NO
Info: DIELECTRIC             1
Info: EXCLUDE                SCALED ONE-FOUR
Info: 1-4 ELECTROSTATICS SCALED BY 0.833333
Info: MODIFIED 1-4 VDW PARAMETERS WILL BE USED
Info: DCD FILENAME           ../replicas/rep14/equilibration/eq2.dcd
Info: DCD FREQUENCY          5000
Info: DCD FIRST STEP         5000
Info: DCD FILE WILL CONTAIN UNIT CELL DATA
Info: XST FILENAME           ../replicas/rep14/equilibration/eq2.xst
Info: XST FREQUENCY          5000
Info: NO VELOCITY DCD OUTPUT
Info: NO FORCE DCD OUTPUT
Info: OUTPUT FILENAME        ../replicas/rep14/equilibration/eq2
Info: RESTART FILENAME       ../replicas/rep14/equilibration/eq2.restart
Info: RESTART FREQUENCY      5000
Info: BINARY RESTART FILES WILL BE USED
Info: SWITCHING ACTIVE
Info: SWITCHING ON           10
Info: SWITCHING OFF          12
Info: PAIRLIST DISTANCE      13.5
Info: PAIRLIST SHRINK RATE   0.01
Info: PAIRLIST GROW RATE     0.01
Info: PAIRLIST TRIGGER       0.3
Info: PAIRLISTS PER CYCLE    2
Info: PAIRLISTS ENABLED
Info: MARGIN                 0.48
Info: HYDROGEN GROUP CUTOFF  2.5
Info: PATCH DIMENSION        16.48
Info: ENERGY OUTPUT STEPS    500
Info: CROSSTERM ENERGY INCLUDED IN DIHEDRAL
Info: TIMING OUTPUT STEPS    5000
Info: PRESSURE OUTPUT STEPS  500
Info: HARMONIC CONSTRAINTS ACTIVE
Info: HARMONIC CONS EXP      2
Info: HARMONIC CONS SCALING  10
Info: LANGEVIN DYNAMICS ACTIVE
Info: LANGEVIN TEMPERATURE   300
Info: LANGEVIN USING BBK INTEGRATOR
Info: LANGEVIN DAMPING COEFFICIENT IS 5 INVERSE PS
Info: LANGEVIN DYNAMICS NOT APPLIED TO HYDROGENS
Info: BERENDSEN PRESSURE COUPLING ACTIVE
Info:     TARGET PRESSURE IS 1 BAR
Info:     COMPRESSIBILITY ESTIMATE IS 4.57e-05 BAR^(-1)
Info:     RELAXATION TIME IS 100 FS
Info:     APPLIED EVERY 2 STEPS
Info:     PRESSURE CONTROL IS GROUP-BASED
Info:       CELL FLUCTUATION IS ISOTROPIC
Info: PARTICLE MESH EWALD (PME) ACTIVE
Info: PME TOLERANCE               1e-06
Info: PME EWALD COEFFICIENT       0.257952
Info: PME INTERPOLATION ORDER     4
Info: PME GRID DIMENSIONS         80 96 80
Info: PME MAXIMUM GRID SPACING    1
Info: FULL ELECTROSTATIC EVALUATION FREQUENCY      2
Info: USING VERLET I (r-RESPA) MTS SCHEME.
Info: C1 SPLITTING OF LONG RANGE ELECTROSTATICS
Info: PLACING ATOMS IN PATCHES BY HYDROGEN GROUPS
Info: RIGID BONDS TO HYDROGEN : WATER
Info:         ERROR TOLERANCE : 1e-05
Info:          MAX ITERATIONS : 100
Info: RIGID WATER USING SETTLE ALGORITHM
Info: RANDOM NUMBER SEED     1503252258
Info: USE HYDROGEN BONDS?    NO
Info: Using AMBER format force field!
Info: AMBER PARM FILE        ../build/complex.top
Info: COORDINATE PDB         ../replicas/rep14/equilibration/eq1.coor
Info: Exclusions in PARM file will be ignored!
Info: SCNB (VDW SCALING)     2
Info: USING ARITHMETIC MEAN TO COMBINE L-J SIGMA PARAMETERS
Info: SUMMARY OF PARAMETERS:
Info: 71 BONDS
Info: 145 ANGLES
Info: 76 DIHEDRAL
Info: 0 IMPROPER
Info: 0 CROSSTERM
Info: 0 VDW
Info: 190 VDW_PAIRS
Info: 0 NBTHOLE_PAIRS
Info: STRUCTURE SUMMARY:
Info: 49394 ATOMS
Info: 49448 BONDS
Info: 8698 ANGLES
Info: 18780 DIHEDRALS
Info: 0 IMPROPERS
Info: 0 CROSSTERMS
Info: 0 EXCLUSIONS
Info: 2336 CONSTRAINTS
Info: 44667 RIGID BONDS
Info: 103515 DEGREES OF FREEDOM
Info: 17225 HYDROGEN GROUPS
Info: 4 ATOMS IN LARGEST HYDROGEN GROUP
Info: 17225 MIGRATION GROUPS
Info: 4 ATOMS IN LARGEST MIGRATION GROUP
Info: TOTAL MASS = 301478 amu
Info: TOTAL CHARGE = 1.00115e-05 e
Info: MASS DENSITY = 0.935846 g/cm^3
Info: ATOM DENSITY = 0.0923345 atoms/A^3
Info: ADDED 70656 IMPLICIT EXCLUSIONS
Info: NONBONDED TABLE R-SQUARED SPACING: 0.0625
Info: NONBONDED TABLE SIZE: 769 POINTS
Info: REMOVING COM VELOCITY -0.0107056 0.00944209 -0.0082393
TCL: Running for 5000 steps
ETITLE: TS BOND ANGLE DIHED IMPRP ELECT VDW BOUNDARY MISC KINETIC TOTAL TEMP POTENTIAL TOTAL3 TEMPAVG PRESSURE GPRESSURE VOLUME PRESSAVG GPRESSAVG
ENERGY: 0 402.7561 1218.4795 2902.3247 0.0000 -212670.9639 29557.5666 0.0000 0.0000 10047.5614 -168542.2757 97.6895 -178589.8371 -168532.6879 97.6895 -2399.9833 -2498.1561 534946.2959 -2399.9833 -2498.1561
ENERGY: 1000 1222.1913 1966.2138 3096.4905 0.0000 -193441.1033 26404.8871 772.0517 0.0000 24069.9801 -135909.2888 234.0253 -159979.2689 -135889.2574 218.4119 -39.4024 9.0299 522858.3397 -7.9212 -8.0825
ENERGY: 2000 1434.7012 2150.7108 3113.2624 0.0000 -183883.3395 23201.0417 788.4914 0.0000 27819.3224 -125375.8096 270.4791 -153195.1320 -125346.1578 264.6893 8.8808 -31.1981 518160.7979 -22.1569 -21.5367
ENERGY: 3000 1574.8538 2233.4292 3133.6457 0.0000 -179137.2076 21531.6222 788.8267 0.0000 29558.0208 -120316.8091 287.3839 -149874.8299 -120262.3004 284.6401 -71.1262 -23.0194 512206.7041 -22.9834 -23.1216
ENERGY: 4000 1553.1262 2236.7205 3142.8676 0.0000 -177028.6211 20861.8860 810.0037 0.0000 30514.9766 -117909.0405 296.6881 -148424.0170 -117868.2094 293.8007 -36.7640 8.3235 507687.0567 -8.8098 -8.3204
ENERGY: 5000 1590.6160 2273.7472 3149.4032 0.0000 -176047.5015 20474.4732 797.8354 0.0000 30593.7804 -117167.6461 297.4543 -147761.4265 -117118.8084 297.8896 35.3944 -9.5682 504411.6873 -21.0662 -20.3095
TCL: Setting parameter constraintScaling to 5.0
TCL: Running for 5000 steps
ETITLE: TS BOND ANGLE DIHED IMPRP ELECT VDW BOUNDARY MISC KINETIC TOTAL TEMP POTENTIAL TOTAL3 TEMPAVG PRESSURE GPRESSURE VOLUME PRESSAVG GPRESSAVG
ENERGY: 5000 1590.6160 2273.7472 3149.4032 0.0000 -176047.5015 20474.4732 398.9177 0.0000 30591.7091 -117568.6352 297.4342 -148160.3442 -117527.7542 297.4342 -52.5451 -99.3732 504411.6873 -52.5451 -99.3732
ENERGY: 6000 1629.8065 2303.8401 3149.4216 0.0000 -175534.8939 20196.0907 677.6196 0.0000 30820.4875 -116757.6280 299.6585 -147578.1155 -116707.2278 298.9610 39.3601 -48.7839 502642.3851 -11.2232 -11.0390
ENERGY: 7000 1576.4859 2277.5614 3158.6592 0.0000 -175590.8703 20161.4569 656.8243 0.0000 30645.1317 -117114.7509 297.9536 -147759.8826 -117077.6188 298.4592 -33.8690 -27.6684 502318.9432 -11.7692 -12.3977
ENERGY: 8000 1562.3987 2326.1344 3165.6469 0.0000 -175241.6143 19862.5917 661.5781 0.0000 30806.4077 -116856.8567 299.5216 -147663.2644 -116815.0530 299.2212 10.4466 16.3846 501726.5679 3.6123 3.3444
ENERGY: 9000 1636.8491 2343.1091 3164.1807 0.0000 -175388.2432 20112.4761 635.6995 0.0000 30741.1699 -116754.7587 298.8873 -147495.9286 -116713.0084 299.8795 -62.5210 -27.2472 502317.1601 -2.6229 -2.7966
ENERGY: 10000 1647.0844 2272.0745 3193.6527 0.0000 -175963.4386 20394.6429 655.2200 0.0000 30881.1666 -116919.5974 300.2485 -147800.7640 -116872.6471 299.4133 -94.1498 -7.3808 501223.5559 -15.8640 -15.7466
TCL: Setting parameter constraintScaling to 2.5
TCL: Running for 5000 steps
ETITLE: TS BOND ANGLE DIHED IMPRP ELECT VDW BOUNDARY MISC KINETIC TOTAL TEMP POTENTIAL TOTAL3 TEMPAVG PRESSURE GPRESSURE VOLUME PRESSAVG GPRESSAVG
ENERGY: 10000 1647.0844 2272.0745 3193.6527 0.0000 -175963.4386 20394.6429 327.6100 0.0000 30879.1283 -117249.2457 300.2286 -148128.3740 -117205.4495 300.2286 -130.7819 -38.6383 501223.5559 -130.7819 -38.6383
ENERGY: 11000 1578.2444 2338.5042 3170.1355 0.0000 -175433.2792 20117.7679 524.0998 0.0000 30813.3144 -116891.2130 299.5888 -147704.5273 -116852.1836 299.2105 -66.4571 1.8184 500696.4233 -4.9495 -4.4959
ENERGY: 12000 1696.3360 2342.6190 3185.4847 0.0000 -175287.2882 19894.8937 524.5909 0.0000 30936.3362 -116707.0278 300.7849 -147643.3640 -116670.5218 300.5009 -72.2707 16.8674 501720.0898 6.2688 6.1370
ENERGY: 13000 1620.5098 2297.4342 3173.9659 0.0000 -175458.1988 20125.4344 506.0418 0.0000 30782.3466 -116952.4661 299.2877 -147734.8127 -116911.7956 300.5757 -87.7581 18.9899 500134.3610 6.2397 6.4565
ENERGY: 14000 1603.7243 2356.9590 3168.6763 0.0000 -175839.8823 20196.0438 507.3509 0.0000 31051.8711 -116955.2569 301.9082 -148007.1280 -116916.4450 300.7069 -54.9052 78.0350 501536.3018 9.6299 9.5449
ENERGY: 15000 1593.9096 2351.1820 3169.5347 0.0000 -175350.4674 19957.1237 500.6677 0.0000 30459.0820 -117318.9678 296.1447 -147778.0498 -117282.9068 298.0710 -30.7154 -34.0529 499654.5816 -4.3370 -4.2333
TCL: Setting parameter constraintScaling to 1.25
TCL: Running for 5000 steps
ETITLE: TS BOND ANGLE DIHED IMPRP ELECT VDW BOUNDARY MISC KINETIC TOTAL TEMP POTENTIAL TOTAL3 TEMPAVG PRESSURE GPRESSURE VOLUME PRESSAVG GPRESSAVG
ENERGY: 15000 1593.9096 2351.1820 3169.5347 0.0000 -175350.4674 19957.1237 250.3338 0.0000 30457.0289 -117571.3548 296.1247 -148028.3836 -117530.8064 296.1247 -62.6869 -67.6368 499654.5816 -62.6869 -67.6368
ENERGY: 16000 1642.1668 2411.4009 3218.3985 0.0000 -175623.0021 19962.7729 395.0422 0.0000 30684.4281 -117308.7927 298.3356 -147993.2209 -117269.7380 298.9178 -102.8958 -45.0515 498698.9517 -0.6025 -0.1823
ENERGY: 17000 1610.6431 2382.1360 3159.3134 0.0000 -176006.9938 20274.8184 410.4334 0.0000 30783.5024 -117386.1471 299.2989 -148169.6495 -117341.8234 299.0220 40.3227 92.1397 499702.4935 16.3049 16.3490
ENERGY: 18000 1635.1286 2360.3785 3179.9818 0.0000 -176061.3897 20165.1575 397.7932 0.0000 30954.9967 -117367.9535 300.9663 -148322.9502 -117325.9090 299.9792 132.3645 92.3815 498101.9669 -4.7476 -5.1719
ENERGY: 19000 1605.8167 2412.6385 3200.6731 0.0000 -175480.0086 20001.5508 420.3647 0.0000 30758.4910 -117080.4738 299.0557 -147838.9648 -117039.8033 300.0586 -219.4430 -2.8171 498482.0580 1.8389 2.0423
ENERGY: 20000 1610.9814 2374.9242 3148.4143 0.0000 -175848.0799 20095.6236 414.1578 0.0000 30889.4254 -117314.5532 300.3288 -148203.9786 -117272.0671 300.2198 17.7911 44.8767 499739.9054 7.6848 7.9086
TCL: Setting parameter constraintScaling to 0.625
TCL: Running for 5000 steps
ETITLE: TS BOND ANGLE DIHED IMPRP ELECT VDW BOUNDARY MISC KINETIC TOTAL TEMP POTENTIAL TOTAL3 TEMPAVG PRESSURE GPRESSURE VOLUME PRESSAVG GPRESSAVG
ENERGY: 20000 1610.9814 2374.9242 3148.4143 0.0000 -175848.0799 20095.6236 207.0789 0.0000 30887.3887 -117523.6688 300.3090 -148411.0575 -117476.2188 300.3090 2.3455 23.0121 499739.9054 2.3455 23.0121
ENERGY: 21000 1637.6069 2424.4354 3208.7571 0.0000 -175869.4796 20251.4762 311.1461 0.0000 31083.9496 -116952.1084 302.2201 -148036.0579 -116903.6013 300.8851 -35.4004 -65.4939 498924.6944 -12.3221 -11.8976
ENERGY: 22000 1658.9452 2408.4864 3222.3140 0.0000 -175985.3506 20398.1119 327.8436 0.0000 30859.5557 -117110.0939 300.0383 -147969.6495 -117062.7158 300.1561 52.2207 41.7719 498992.8299 -5.5296 -5.9219
ENERGY: 23000 1619.4140 2357.6284 3192.6035 0.0000 -175725.6648 20084.9629 309.7934 0.0000 30928.1273 -117233.1353 300.7050 -148161.2626 -117184.2368 300.1278 13.3152 61.4615 498081.2744 -18.2385 -17.9250
ENERGY: 24000 1613.8586 2371.9058 3227.1358 0.0000 -175294.0920 19760.0052 314.6344 0.0000 30914.4891 -117092.0632 300.5724 -148006.5523 -117054.7985 300.0740 -168.7963 -54.5951 499280.3459 -1.5144 -1.5328
ENERGY: 25000 1583.4147 2362.0580 3163.9227 0.0000 -175761.3426 20275.0020 323.1272 0.0000 31040.5128 -117013.3054 301.7977 -148053.8182 -116973.8068 301.4032 -3.0357 -4.6734 499595.9626 4.9727 4.5490
TCL: Setting parameter constraintScaling to 0.3125
TCL: Running for 5000 steps
ETITLE: TS BOND ANGLE DIHED IMPRP ELECT VDW BOUNDARY MISC KINETIC TOTAL TEMP POTENTIAL TOTAL3 TEMPAVG PRESSURE GPRESSURE VOLUME PRESSAVG GPRESSAVG
ENERGY: 25000 1583.4147 2362.0580 3163.9227 0.0000 -175761.3426 20275.0020 161.5636 0.0000 31038.4439 -117176.9379 301.7776 -148215.3818 -117132.3435 301.7776 9.4840 1.0415 499595.9626 9.4840 1.0415
ENERGY: 26000 1588.5107 2434.2583 3210.2137 0.0000 -175507.4199 20201.8842 241.7017 0.0000 30940.2895 -116890.5616 300.8233 -147830.8512 -116862.2617 300.9876 -31.2297 13.7541 499674.4800 -2.0661 -2.1088
ENERGY: 27000 1608.1788 2387.7003 3210.9497 0.0000 -175551.0806 20017.7569 249.2901 0.0000 30658.7406 -117418.4642 298.0859 -148077.2048 -117362.4298 299.9282 52.6078 55.7100 499410.3984 5.7252 6.0164
ENERGY: 28000 1637.8932 2368.2846 3207.7795 0.0000 -175209.6014 19677.1349 254.9029 0.0000 30835.5609 -117228.0454 299.8051 -148063.6063 -117169.9549 299.3577 54.0348 74.2035 498257.0604 -0.8670 -0.3516
ENERGY: 29000 1626.1061 2329.6468 3213.4664 0.0000 -175652.8096 20102.9120 258.2064 0.0000 30675.8987 -117446.5733 298.2527 -148122.4720 -117407.7038 299.4951 -27.4371 -59.5127 499359.0894 5.7335 5.2472
ENERGY: 30000 1623.0501 2370.7589 3212.1151 0.0000 -175896.8037 20098.4118 261.8006 0.0000 30698.4732 -117632.1940 298.4722 -148330.6672 -117595.6193 298.8751 104.9087 112.2538 498487.7722 -7.3215 -7.3060
TCL: Setting parameter constraintScaling to 0.15625
TCL: Running for 5000 steps
ETITLE: TS BOND ANGLE DIHED IMPRP ELECT VDW BOUNDARY MISC KINETIC TOTAL TEMP POTENTIAL TOTAL3 TEMPAVG PRESSURE GPRESSURE VOLUME PRESSAVG GPRESSAVG
ENERGY: 30000 1623.0501 2370.7589 3212.1151 0.0000 -175896.8037 20098.4118 130.9003 0.0000 30696.4400 -117765.1275 298.4524 -148461.5675 -117721.3818 298.4524 61.0242 68.8125 498487.7722 61.0242 68.8125
ENERGY: 31000 1646.1568 2449.2714 3243.7026 0.0000 -175985.3884 20117.8677 189.9966 0.0000 30584.8769 -117753.5165 297.3677 -148338.3934 -117706.6932 298.7047 -154.7766 -117.3171 498824.2602 -0.4673 -0.7072
ENERGY: 32000 1600.2774 2311.3943 3194.7849 0.0000 -175885.1829 20267.8142 197.7491 0.0000 30732.4389 -117580.7241 298.8024 -148313.1630 -117536.3001 298.2497 74.0315 47.0402 498214.0640 -0.8987 -0.8877
ENERGY: 33000 1520.1368 2408.1316 3203.9331 0.0000 -175327.9994 19878.8512 187.5166 0.0000 30591.8018 -117537.6282 297.4351 -148129.4300 -117489.0709 298.9044 12.0903 16.0526 499725.3607 7.7248 7.8177
ENERGY: 34000 1612.5571 2436.0534 3210.8923 0.0000 -175675.8398 20127.2358 195.5698 0.0000 30797.3632 -117296.1682 299.4337 -148093.5314 -117237.0054 299.0924 80.2678 102.4915 499485.1576 3.5988 4.0445
ENERGY: 35000 1597.1870 2464.5459 3225.6373 0.0000 -175703.9051 19949.4097 189.5023 0.0000 30940.6227 -117337.0003 300.8265 -148277.6229 -117292.2407 299.8455 -32.8741 -42.5286 499104.4890 -4.8391 -4.7156
TCL: Setting parameter constraintScaling to 0.078125
TCL: Running for 5000 steps
ETITLE: TS BOND ANGLE DIHED IMPRP ELECT VDW BOUNDARY MISC KINETIC TOTAL TEMP POTENTIAL TOTAL3 TEMPAVG PRESSURE GPRESSURE VOLUME PRESSAVG GPRESSAVG
ENERGY: 35000 1597.1870 2464.5459 3225.6373 0.0000 -175703.9051 19949.4097 94.7511 0.0000 30938.5897 -117433.7844 300.8068 -148372.3740 -117389.4870 300.8068 -58.8163 -73.0368 499104.4890 -58.8163 -73.0368
ENERGY: 36000 1628.7674 2450.3440 3230.8035 0.0000 -176307.2673 20316.5412 133.8958 0.0000 30452.9291 -118093.9863 296.0848 -148546.9154 -118050.9536 298.7086 -194.4567 -16.6369 498030.7072 0.9449 0.7322
ENERGY: 37000 1628.2794 2454.4489 3209.0919 0.0000 -176050.3030 20206.2799 151.6688 0.0000 30740.3303 -117660.2038 298.8792 -148400.5341 -117617.2364 298.9451 62.2333 78.2518 496105.8964 -4.1781 -4.4612
ENERGY: 38000 1686.8799 2408.0404 3179.6460 0.0000 -175964.1234 20061.5056 150.0789 0.0000 30671.4275 -117806.5451 298.2092 -148477.9726 -117763.2121 299.3057 -54.3169 14.6810 496718.4391 -2.8071 -3.2589
ENERGY: 39000 1608.5077 2414.9825 3210.4668 0.0000 -175798.2960 20023.6202 159.7398 0.0000 30790.0218 -117590.9572 299.3623 -148380.9790 -117540.1153 299.3181 48.6246 82.4970 496199.0456 -4.0814 -3.6320
ENERGY: 40000 1599.3835 2453.6992 3184.1186 0.0000 -176015.5086 20204.6723 159.5670 0.0000 30801.1113 -117612.9569 299.4701 -148414.0682 -117567.5478 299.6731 95.2950 95.5743 497122.0086 4.0883 3.9168
TCL: Setting parameter constraintScaling to 0.0390625
TCL: Running for 5000 steps
ETITLE: TS BOND ANGLE DIHED IMPRP ELECT VDW BOUNDARY MISC KINETIC TOTAL TEMP POTENTIAL TOTAL3 TEMPAVG PRESSURE GPRESSURE VOLUME PRESSAVG GPRESSAVG
ENERGY: 40000 1599.3835 2453.6992 3184.1186 0.0000 -176015.5086 20204.6723 79.7835 0.0000 30799.0858 -117694.7659 299.4504 -148493.8517 -117651.6955 299.4504 92.5701 98.9760 497122.0086 92.5701 98.9760
ENERGY: 41000 1600.7705 2408.7595 3214.8132 0.0000 -175885.4053 19947.3489 108.9131 0.0000 30903.5942 -117701.2059 300.4665 -148604.8001 -117660.1032 299.7778 -88.7435 -14.5595 496436.0352 -2.3381 -2.2802
ENERGY: 42000 1639.5239 2414.7808 3213.2186 0.0000 -176225.2196 20303.3980 123.4465 0.0000 30731.5829 -117799.2689 298.7941 -148530.8518 -117761.7824 299.2619 -29.8148 8.8044 497641.7248 11.3960 10.8579
ENERGY: 43000 1632.3543 2416.5550 3194.7884 0.0000 -175945.7746 20101.8851 122.6811 0.0000 30692.9194 -117784.5912 298.4182 -148477.5106 -117757.7115 299.2632 42.4040 7.7530 496671.3900 3.7378 3.8668
ENERGY: 44000 1674.4913 2400.2639 3172.0107 0.0000 -176099.6468 20207.5275 127.6864 0.0000 30681.9773 -117835.6898 298.3118 -148517.6671 -117799.2284 298.7203 77.0753 34.1666 496313.3199 -2.4991 -2.5262
ENERGY: 45000 1559.8499 2422.0462 3202.6008 0.0000 -175522.3986 19969.6388 120.2060 0.0000 30839.0107 -117409.0462 299.8386 -148248.0570 -117372.4474 300.4562 -34.9160 58.8379 497827.7231 6.7703 6.6570
TCL: Setting parameter constraintScaling to 0.01953125
TCL: Running for 5000 steps
ETITLE: TS BOND ANGLE DIHED IMPRP ELECT VDW BOUNDARY MISC KINETIC TOTAL TEMP POTENTIAL TOTAL3 TEMPAVG PRESSURE GPRESSURE VOLUME PRESSAVG GPRESSAVG
ENERGY: 45000 1559.8499 2422.0462 3202.6008 0.0000 -175522.3986 19969.6388 60.1030 0.0000 30836.9479 -117471.2120 299.8185 -148308.1600 -117423.4913 299.8185 -53.3757 39.6219 497827.7231 -53.3757 39.6219
ENERGY: 46000 1588.6923 2421.7187 3221.6037 0.0000 -175719.4353 20004.7899 83.7374 0.0000 30972.4426 -117426.4508 301.1359 -148398.8934 -117391.7382 299.8906 -137.3731 -95.6531 498857.7792 11.5787 11.7356
ENERGY: 47000 1710.4647 2395.2828 3224.7256 0.0000 -175851.7686 20026.6420 87.1488 0.0000 31080.3254 -117327.1791 302.1848 -148407.5045 -117286.0701 299.6484 74.3990 27.3830 496702.8782 -2.2167 -2.4139
ENERGY: 48000 1677.5701 2425.6771 3180.1010 0.0000 -175928.5587 20174.6027 86.3319 0.0000 30879.9970 -117504.2790 300.2371 -148384.2759 -117475.0947 300.8199 -110.2306 -53.6550 497808.5653 11.6053 11.6494
ENERGY: 49000 1615.1851 2455.6506 3212.1243 0.0000 -176097.6204 20084.0693 94.4581 0.0000 30673.0695 -117963.0634 298.2252 -148636.1329 -117922.0645 298.9638 14.8552 -1.8910 497843.0828 3.2372 3.1837
ENERGY: 50000 1578.2264 2397.6984 3219.4863 0.0000 -175611.5050 19982.3255 102.1360 0.0000 30911.7983 -117419.8340 300.5463 -148331.6324 -117379.1904 299.9278 -9.4729 16.0114 497629.0057 7.3821 7.6762
TCL: Setting parameter constraintScaling to 0
TCL: Running for 5000 steps
ETITLE: TS BOND ANGLE DIHED IMPRP ELECT VDW BOUNDARY MISC KINETIC TOTAL TEMP POTENTIAL TOTAL3 TEMPAVG PRESSURE GPRESSURE VOLUME PRESSAVG GPRESSAVG
ENERGY: 50000 1578.2264 2397.6984 3219.4863 0.0000 -175611.5050 19982.3255 0.0000 0.0000 30909.7292 -117524.0391 300.5262 -148433.7684 -117481.2493 300.5262 -11.2323 4.3990 497629.0057 -11.2323 4.3990
ENERGY: 51000 1611.4440 2440.1419 3203.2193 0.0000 -175804.8217 20061.4383 0.0000 0.0000 30928.2929 -117560.2855 300.7067 -148488.5784 -117511.2509 299.8261 -86.7271 -44.2994 496620.7444 -4.9114 -4.4902
ENERGY: 52000 1625.9727 2451.7854 3199.4819 0.0000 -175839.7678 20020.1714 0.0000 0.0000 30600.1823 -117942.1740 297.5165 -148542.3563 -117892.9532 300.5102 43.6705 44.8167 496385.6140 -8.7998 -8.9594
ENERGY: 53000 1661.4027 2444.5462 3173.2372 0.0000 -176160.5513 20015.1686 0.0000 0.0000 30827.9706 -118038.2261 299.7313 -148866.1967 -117991.6938 300.2487 -54.0460 -98.7710 494142.3181 -13.8042 -13.3114
ENERGY: 54000 1681.6773 2413.1598 3176.9015 0.0000 -176158.6732 20214.2905 0.0000 0.0000 30842.5951 -117830.0489 299.8734 -148672.6440 -117790.0081 299.4055 39.3613 34.4273 496217.8393 13.4016 13.8021
ENERGY: 55000 1581.0522 2434.6739 3207.5520 0.0000 -175546.3968 19877.8677 0.0000 0.0000 31038.2009 -117407.0501 301.7753 -148445.2511 -117369.2643 300.6719 -124.5575 -55.9353 496262.2837 2.1487 1.8440
