Info: SIMULATION PARAMETERS:
Info: TIMESTEP               1
Info: NUMBER OF STEPS        0
Info: STEPS PER CYCLE        10
Info: PERIODIC CELL BASIS 1  72.449 0 0
Info: PERIODIC CELL BASIS 2  0 93.247 0
Info: PERIODIC CELL BASIS 3  0 0 79.185
Info: PERIODIC CELL CENTER   -0.248 -0.156 -0.047
Info: WRAPPING WATERS AROUND PERIODIC BOUNDARIES ON OUTPUT.
Info: WRAPPING ALL CLUSTERS AROUND PERIODIC BOUNDARIES ON OUTPUT.
Info: FIRST LDB TIMESTEP     50
Info: LAST LDB TIMESTEP     -1
Info: HOM BACKGROUND SCALING 1
Info: PME BACKGROUND SCALING 1
Info: MIN ATOMS PER PATCH    40
Info: VELOCITY FILE          ../replicas/rep7/equilibration/eq1.vel
Info: CENTER OF MASS MOVING INITIALLY? NO
Info: DIELECTRIC             1
Info: EXCLUDE                SCALED ONE-FOUR
Info: 1-4 ELECTROSTATICS SCALED BY 0.833333
Info: MODIFIED 1-4 VDW PARAMETERS WILL BE USED
Info: DCD FILENAME           ../replicas/rep7/equilibration/eq2.dcd
Info: DCD FREQUENCY          5000
Info: DCD FIRST STEP         5000
Info: DCD FILE WILL CONTAIN UNIT CELL DATA
Info: XST FILENAME           ../replicas/rep7/equilibration/eq2.xst
Info: XST FREQUENCY          5000
Info: NO VELOCITY DCD OUTPUT
Info: NO FORCE DCD OUTPUT
Info: OUTPUT FILENAME        ../replicas/rep7/equilibration/eq2
Info: RESTART FILENAME       ../replicas/rep7/equilibration/eq2.restart
Info: RESTART FREQUENCY      5000
Info: BINARY RESTART FILES WILL BE USED
Info: SWITCHING ACTIVE
Info: SWITCHING ON           10
Info: SWITCHING OFF          12
Info: PAIRLIST DISTANCE      13.5
Info: PAIRLIST SHRINK RATE   0.01
Info: PAIRLIST GROW RATE     0.01
Info: PAIRLIST TRIGGER       0.3
Info: PAIRLISTS PER CYCLE    2
Info: PAIRLISTS ENABLED
Info: MARGIN                 0.48
Info: HYDROGEN GROUP CUTOFF  2.5
Info: PATCH DIMENSION        16.48
Info: ENERGY OUTPUT STEPS    500
Info: CROSSTERM ENERGY INCLUDED IN DIHEDRAL
Info: TIMING OUTPUT STEPS    5000
Info: PRESSURE OUTPUT STEPS  500
Info: HARMONIC CONSTRAINTS ACTIVE
Info: HARMONIC CONS EXP      2
Info: HARMONIC CONS SCALING  10
Info: LANGEVIN DYNAMICS ACTIVE
Info: LANGEVIN TEMPERATURE   300
Info: LANGEVIN USING BBK INTEGRATOR
Info: LANGEVIN DAMPING COEFFICIENT IS 5 INVERSE PS
Info: LANGEVIN DYNAMICS NOT APPLIED TO HYDROGENS
Info: BERENDSEN PRESSURE COUPLING ACTIVE
Info:     TARGET PRESSURE IS 1 BAR
Info:     COMPRESSIBILITY ESTIMATE IS 4.57e-05 BAR^(-1)
Info:     RELAXATION TIME IS 100 FS
Info:     APPLIED EVERY 2 STEPS
Info:     PRESSURE CONTROL IS GROUP-BASED
Info:       CELL FLUCTUATION IS ISOTROPIC
Info: PARTICLE MESH EWALD (PME) ACTIVE
Info: PME TOLERANCE               1e-06
Info: PME EWALD COEFFICIENT       0.257952
Info: PME INTERPOLATION ORDER     4
Info: PME GRID DIMENSIONS         80 96 80
Info: PME MAXIMUM GRID SPACING    1
Info: FULL ELECTROSTATIC EVALUATION FREQUENCY      2
Info: USING VERLET I (r-RESPA) MTS SCHEME.
Info: C1 SPLITTING OF LONG RANGE ELECTROSTATICS
Info: PLACING ATOMS IN PATCHES BY HYDROGEN GROUPS
Info: RIGID BONDS TO HYDROGEN : WATER
Info:         ERROR TOLERANCE : 1e-05
Info:          MAX ITERATIONS : 100
Info: RIGID WATER USING SETTLE ALGORITHM
Info: RANDOM NUMBER SEED     1503265542
Info: USE HYDROGEN BONDS?    NO
Info: Using AMBER format force field!
Info: AMBER PARM FILE        ../build/complex.top
Info: COORDINATE PDB         ../replicas/rep7/equilibration/eq1.coor
Info: Exclusions in PARM file will be ignored!
Info: SCNB (VDW SCALING)     2
Info: USING ARITHMETIC MEAN TO COMBINE L-J SIGMA PARAMETERS
Info: SUMMARY OF PARAMETERS:
Info: 71 BONDS
Info: 145 ANGLES
Info: 76 DIHEDRAL
Info: 0 IMPROPER
Info: 0 CROSSTERM
Info: 0 VDW
Info: 190 VDW_PAIRS
Info: 0 NBTHOLE_PAIRS
Info: STRUCTURE SUMMARY:
Info: 49394 ATOMS
Info: 49448 BONDS
Info: 8698 ANGLES
Info: 18780 DIHEDRALS
Info: 0 IMPROPERS
Info: 0 CROSSTERMS
Info: 0 EXCLUSIONS
Info: 2336 CONSTRAINTS
Info: 44667 RIGID BONDS
Info: 103515 DEGREES OF FREEDOM
Info: 17225 HYDROGEN GROUPS
Info: 4 ATOMS IN LARGEST HYDROGEN GROUP
Info: 17225 MIGRATION GROUPS
Info: 4 ATOMS IN LARGEST MIGRATION GROUP
Info: TOTAL MASS = 301478 amu
Info: TOTAL CHARGE = 1.00115e-05 e
Info: MASS DENSITY = 0.935846 g/cm^3
Info: ATOM DENSITY = 0.0923345 atoms/A^3
Info: ADDED 70656 IMPLICIT EXCLUSIONS
Info: NONBONDED TABLE R-SQUARED SPACING: 0.0625
Info: NONBONDED TABLE SIZE: 769 POINTS
Info: REMOVING COM VELOCITY -0.0132246 -0.0288211 -0.0184799
TCL: Running for 5000 steps
ETITLE: TS BOND ANGLE DIHED IMPRP ELECT VDW BOUNDARY MISC KINETIC TOTAL TEMP POTENTIAL TOTAL3 TEMPAVG PRESSURE GPRESSURE VOLUME PRESSAVG GPRESSAVG
ENERGY: 0 405.0432 1204.9845 2914.8757 0.0000 -212711.3026 29523.0459 0.0000 0.0000 10068.7282 -168594.6250 97.8953 -178663.3533 -168584.9780 97.8953 -2384.1757 -2487.4815 534946.2959 -2384.1757 -2487.4815
ENERGY: 1000 1224.9919 1984.4913 3104.6107 0.0000 -193844.6157 26555.6339 749.2493 0.0000 24339.6104 -135886.0282 236.6468 -160225.6386 -135864.9279 218.6992 2.9318 -13.2099 522259.8038 -20.5924 -20.6300
ENERGY: 2000 1442.4771 2168.0730 3132.2974 0.0000 -184157.0323 23396.4805 802.7365 0.0000 27776.6372 -125438.3306 270.0640 -153214.9678 -125406.3855 264.0587 -48.2973 -1.4070 514970.0267 -24.8521 -24.8934
ENERGY: 3000 1505.6362 2214.1111 3128.1195 0.0000 -179269.3472 21543.8919 780.3531 0.0000 29510.6328 -120586.6026 286.9232 -150097.2354 -120555.4030 283.9081 -15.5517 -13.0035 508983.8569 -18.7585 -19.7911
ENERGY: 4000 1543.3275 2251.1355 3150.0336 0.0000 -177128.4577 20751.8473 787.0451 0.0000 30168.0921 -118476.9767 293.3155 -148645.0688 -118437.0649 292.8594 -127.1726 -26.5719 506099.9669 -9.1095 -9.0800
ENERGY: 5000 1546.0144 2258.9214 3142.0817 0.0000 -176060.0838 20252.9201 803.7883 0.0000 30357.1874 -117699.1705 295.1540 -148056.3579 -117657.5641 295.7485 -20.6080 -27.0472 503671.6415 -13.1311 -13.4392
TCL: Setting parameter constraintScaling to 5.0
TCL: Running for 5000 steps
ETITLE: TS BOND ANGLE DIHED IMPRP ELECT VDW BOUNDARY MISC KINETIC TOTAL TEMP POTENTIAL TOTAL3 TEMPAVG PRESSURE GPRESSURE VOLUME PRESSAVG GPRESSAVG
ENERGY: 5000 1546.0144 2258.9214 3142.0817 0.0000 -176060.0837 20252.9201 401.8942 0.0000 30355.1388 -118103.1132 295.1341 -148458.2520 -118059.0145 295.1341 -63.3536 -66.8283 503671.6415 -63.3536 -66.8283
ENERGY: 6000 1626.0113 2270.6806 3175.3574 0.0000 -176142.7787 20366.6308 637.3766 0.0000 30453.2822 -117613.4398 296.0883 -148066.7220 -117569.0369 296.8183 -114.8506 -56.3537 502913.2024 -3.5975 -3.1611
ENERGY: 7000 1590.4715 2283.3991 3151.1822 0.0000 -175650.2773 20096.5181 659.6460 0.0000 30863.0914 -117005.9690 300.0727 -147869.0604 -116955.9100 297.9068 14.0662 -20.9542 500959.6877 -0.7237 -0.8437
ENERGY: 8000 1578.6606 2285.5475 3168.5309 0.0000 -175495.0127 20095.0847 666.2261 0.0000 30664.1527 -117036.8102 298.1385 -147700.9629 -116992.7042 299.0369 -8.8094 39.7085 502041.2659 16.2925 16.0888
ENERGY: 9000 1601.9018 2313.3047 3145.7782 0.0000 -175330.2777 20030.3784 651.2426 0.0000 30831.6240 -116756.0480 299.7668 -147587.6719 -116710.8886 299.5469 -38.1247 43.2884 501741.4049 -10.0806 -10.0276
ENERGY: 10000 1631.9733 2306.5196 3143.9447 0.0000 -175289.3823 19948.8834 660.1144 0.0000 30922.1054 -116675.8415 300.6465 -147597.9469 -116634.2894 300.1540 -15.9736 -18.6545 500542.2133 0.3668 1.1131
TCL: Setting parameter constraintScaling to 2.5
TCL: Running for 5000 steps
ETITLE: TS BOND ANGLE DIHED IMPRP ELECT VDW BOUNDARY MISC KINETIC TOTAL TEMP POTENTIAL TOTAL3 TEMPAVG PRESSURE GPRESSURE VOLUME PRESSAVG GPRESSAVG
ENERGY: 10000 1631.9733 2306.5196 3143.9447 0.0000 -175289.3823 19948.8834 330.0572 0.0000 30920.0691 -117007.9350 300.6267 -147928.0041 -116965.8194 300.6267 -139.1717 -133.7274 500542.2133 -139.1717 -133.7274
ENERGY: 11000 1610.5821 2330.0046 3196.5329 0.0000 -175254.8682 19760.8340 486.8193 0.0000 30732.4186 -117137.6767 298.8022 -147870.0953 -117089.3026 300.4477 -25.7865 -14.9527 500622.8816 12.8456 13.2890
ENERGY: 12000 1621.1315 2378.2853 3178.1358 0.0000 -175789.1796 19964.3344 505.7082 0.0000 30980.1776 -117161.4069 301.2111 -148141.5846 -117107.6174 299.9177 59.3091 69.8796 498915.5490 -9.1957 -9.8024
ENERGY: 13000 1661.5642 2348.2121 3168.0570 0.0000 -176415.9973 20531.0304 511.9412 0.0000 30933.1804 -117262.0121 300.7542 -148195.1924 -117214.9397 298.3242 -27.0183 36.9839 499346.0307 -4.9200 -4.8584
ENERGY: 14000 1575.0960 2433.8690 3167.7218 0.0000 -175741.2144 20013.1015 496.5197 0.0000 30888.5697 -117166.3366 300.3204 -148054.9063 -117102.9483 299.2010 -38.3360 -13.5329 498169.3378 0.8693 0.7903
ENERGY: 15000 1657.5255 2341.9835 3176.0406 0.0000 -175886.0614 20092.6667 511.0483 0.0000 30768.7629 -117338.0338 299.1556 -148106.7968 -117297.5500 299.8686 -57.9707 0.4308 497637.3666 -2.6908 -2.5391
TCL: Setting parameter constraintScaling to 1.25
TCL: Running for 5000 steps
ETITLE: TS BOND ANGLE DIHED IMPRP ELECT VDW BOUNDARY MISC KINETIC TOTAL TEMP POTENTIAL TOTAL3 TEMPAVG PRESSURE GPRESSURE VOLUME PRESSAVG GPRESSAVG
ENERGY: 15000 1657.5255 2341.9835 3176.0406 0.0000 -175886.0614 20092.6667 255.5242 0.0000 30766.7180 -117595.6029 299.1357 -148362.3209 -117552.4338 299.1357 -112.7066 -61.0745 497637.3666 -112.7066 -61.0745
ENERGY: 16000 1605.5105 2374.7854 3175.5514 0.0000 -176267.6855 20106.4709 394.9631 0.0000 30904.7946 -117705.6097 300.4782 -148610.4043 -117655.2951 299.8400 -92.3904 -5.0655 498312.5098 9.4159 9.3717
ENERGY: 17000 1635.6921 2435.8201 3168.9664 0.0000 -175832.0211 20063.9328 407.6862 0.0000 30827.3872 -117292.5363 299.7256 -148119.9235 -117252.6202 299.5504 -23.7674 57.8069 499155.4435 5.0398 5.2061
ENERGY: 18000 1621.5315 2352.0936 3205.1989 0.0000 -175827.4878 20047.4250 421.6449 0.0000 31064.0336 -117115.5603 302.0264 -148179.5939 -117079.3296 300.2912 -88.3224 -79.6891 499568.8340 -5.6619 -5.8054
ENERGY: 19000 1626.8448 2416.9066 3166.4824 0.0000 -175717.3396 20002.0795 392.2636 0.0000 30701.4298 -117411.3330 298.5009 -148112.7628 -117364.5978 299.6487 -18.4654 -5.4640 499422.7617 -2.8570 -2.7543
ENERGY: 20000 1653.0127 2326.8453 3168.7279 0.0000 -175698.1807 19989.4736 403.8725 0.0000 30699.5987 -117456.6500 298.4831 -148156.2487 -117409.9545 299.0002 -15.0080 27.4468 499203.8102 -7.2097 -6.8374
TCL: Setting parameter constraintScaling to 0.625
TCL: Running for 5000 steps
ETITLE: TS BOND ANGLE DIHED IMPRP ELECT VDW BOUNDARY MISC KINETIC TOTAL TEMP POTENTIAL TOTAL3 TEMPAVG PRESSURE GPRESSURE VOLUME PRESSAVG GPRESSAVG
ENERGY: 20000 1653.0127 2326.8453 3168.7279 0.0000 -175698.1807 19989.4736 201.9362 0.0000 30697.5384 -117660.6465 298.4631 -148358.1849 -117617.9451 298.4631 -137.1863 -86.5969 499203.8102 -137.1863 -86.5969
ENERGY: 21000 1633.6423 2364.9000 3193.3394 0.0000 -176176.3822 20435.5802 299.6752 0.0000 30651.5786 -117597.6664 298.0162 -148249.2450 -117560.5543 298.7630 -44.8267 16.6017 498146.0452 9.8560 9.2370
ENERGY: 22000 1613.1033 2373.9595 3196.4730 0.0000 -175989.6518 20067.7019 323.6131 0.0000 30809.1922 -117605.6088 299.5487 -148414.8009 -117550.0428 299.2775 -4.5771 41.1827 496897.9835 -0.8461 -0.7383
ENERGY: 23000 1609.6666 2475.4446 3211.2739 0.0000 -175693.3862 19992.6549 320.3909 0.0000 30973.0342 -117110.9210 301.1417 -148083.9552 -117068.5078 300.5575 98.5725 127.6626 498185.3908 0.0949 -0.6379
ENERGY: 24000 1606.9067 2313.7980 3203.0370 0.0000 -175855.3759 20039.2273 307.0112 0.0000 31042.8952 -117342.5006 301.8209 -148385.3958 -117295.7119 299.9518 -4.9925 -3.3903 498729.5238 1.6645 1.9832
ENERGY: 25000 1639.7180 2364.2739 3209.1243 0.0000 -175710.4253 20145.3480 321.9797 0.0000 30494.5194 -117535.4620 296.4892 -148029.9814 -117504.6307 298.6015 134.1783 79.4002 499558.5693 10.1292 9.9377
TCL: Setting parameter constraintScaling to 0.3125
TCL: Running for 5000 steps
ETITLE: TS BOND ANGLE DIHED IMPRP ELECT VDW BOUNDARY MISC KINETIC TOTAL TEMP POTENTIAL TOTAL3 TEMPAVG PRESSURE GPRESSURE VOLUME PRESSAVG GPRESSAVG
ENERGY: 25000 1639.7180 2364.2739 3209.1243 0.0000 -175710.4253 20145.3480 160.9898 0.0000 30492.4638 -117698.5074 296.4692 -148190.9713 -117655.2710 296.4692 88.3745 38.4241 499558.5693 88.3745 38.4241
ENERGY: 26000 1655.2432 2431.3213 3193.2173 0.0000 -176100.4528 20403.4775 264.9497 0.0000 30999.3786 -117152.8652 301.3978 -148152.2438 -117116.8359 300.9506 37.3973 3.1176 499415.6498 -2.4583 -2.5779
ENERGY: 27000 1695.8783 2358.9770 3208.7280 0.0000 -175448.8782 20000.0916 270.6096 0.0000 30719.0060 -117195.5876 298.6718 -147914.5936 -117163.1626 300.0615 -32.0694 61.6066 498021.6693 -2.3086 -2.6242
ENERGY: 28000 1634.2131 2470.5244 3206.4539 0.0000 -175483.8980 19836.7204 255.9392 0.0000 30853.3808 -117226.6662 299.9783 -148080.0470 -117182.1452 300.3076 -47.3265 -36.6880 496827.7568 -1.3771 -1.2582
ENERGY: 29000 1623.1398 2414.6540 3184.9259 0.0000 -176156.0196 20149.5906 243.0263 0.0000 30991.1069 -117549.5761 301.3174 -148540.6829 -117508.7079 299.0464 -44.1467 4.5411 496923.8032 3.8495 3.7659
ENERGY: 30000 1624.5198 2361.3633 3215.2053 0.0000 -175990.3701 20236.0674 250.7151 0.0000 30719.1973 -117583.3020 298.6737 -148302.4992 -117532.2080 299.8137 140.6848 54.7252 497790.9330 12.1943 12.2631
TCL: Setting parameter constraintScaling to 0.15625
TCL: Running for 5000 steps
ETITLE: TS BOND ANGLE DIHED IMPRP ELECT VDW BOUNDARY MISC KINETIC TOTAL TEMP POTENTIAL TOTAL3 TEMPAVG PRESSURE GPRESSURE VOLUME PRESSAVG GPRESSAVG
ENERGY: 30000 1624.5198 2361.3633 3215.2053 0.0000 -175990.3701 20236.0674 125.3576 0.0000 30717.1681 -117710.6887 298.6540 -148427.8568 -117666.1035 298.6540 117.1935 27.1837 497790.9330 117.1935 27.1837
ENERGY: 31000 1641.9569 2418.3700 3243.8929 0.0000 -175822.4548 19976.9039 187.7837 0.0000 30887.5268 -117466.0205 300.3103 -148353.5473 -117425.1105 299.6206 80.1398 31.2167 496300.3481 -11.3934 -11.3538
ENERGY: 32000 1643.5346 2351.5220 3229.7072 0.0000 -175597.3274 20031.4587 193.6447 0.0000 30870.5214 -117276.9389 300.1450 -148147.4603 -117238.1981 299.4712 86.2903 113.9527 498610.5678 12.5776 12.7414
ENERGY: 33000 1639.1917 2431.5917 3210.5371 0.0000 -175597.4017 19794.5788 212.1065 0.0000 30853.9265 -117455.4694 299.9836 -148309.3959 -117412.5537 299.6343 -15.9548 18.7118 496351.3030 -18.0040 -17.4069
ENERGY: 34000 1605.5439 2400.3267 3219.4123 0.0000 -175722.3871 20072.9053 211.7685 0.0000 30840.5886 -117371.8418 299.8539 -148212.4304 -117326.7435 299.9443 -57.1481 -9.5563 497948.7078 -2.9803 -3.0999
ENERGY: 35000 1565.0463 2362.5290 3215.8426 0.0000 -175586.7461 19886.4419 189.8568 0.0000 30746.0846 -117620.9450 298.9351 -148367.0295 -117576.8245 298.8361 -42.2413 -19.7377 498495.7873 1.3075 1.4546
TCL: Setting parameter constraintScaling to 0.078125
TCL: Running for 5000 steps
ETITLE: TS BOND ANGLE DIHED IMPRP ELECT VDW BOUNDARY MISC KINETIC TOTAL TEMP POTENTIAL TOTAL3 TEMPAVG PRESSURE GPRESSURE VOLUME PRESSAVG GPRESSAVG
ENERGY: 35000 1565.0463 2362.5290 3215.8426 0.0000 -175586.7462 19886.4419 94.9284 0.0000 30744.0443 -117717.9136 298.9153 -148461.9580 -117673.9721 298.9153 -63.8080 -37.6677 498495.7873 -63.8080 -37.6677
ENERGY: 36000 1667.5959 2380.9688 3194.9866 0.0000 -175731.9876 19971.2536 139.2203 0.0000 30809.0145 -117568.9478 299.5470 -148377.9624 -117523.8335 300.0063 -8.9114 12.6464 496225.6985 -6.6416 -5.9898
ENERGY: 37000 1617.4181 2380.9035 3183.6751 0.0000 -176203.6587 20289.5577 148.3789 0.0000 31105.1772 -117478.5482 302.4265 -148583.7254 -117423.7475 299.9675 -31.7972 -28.3198 497126.2365 5.2070 4.8560
ENERGY: 38000 1659.3957 2347.0847 3205.7019 0.0000 -175981.6875 20009.1249 157.0330 0.0000 30725.6590 -117877.6882 298.7365 -148603.3471 -117821.7039 299.0434 59.0759 70.9426 495572.1456 -15.2185 -14.6689
ENERGY: 39000 1667.5035 2412.4740 3177.2944 0.0000 -175745.0785 19896.3239 156.6134 0.0000 30812.8661 -117622.0032 299.5844 -148434.8693 -117570.2004 299.0541 -91.0225 -19.9455 497588.2359 9.9042 9.6567
ENERGY: 40000 1667.5070 2362.0874 3194.3930 0.0000 -175659.2034 19992.3264 147.5106 0.0000 31161.8951 -117133.4839 302.9779 -148295.3790 -117087.9385 300.7840 -44.0535 -86.7351 499151.9050 3.3424 3.3376
TCL: Setting parameter constraintScaling to 0.0390625
TCL: Running for 5000 steps
ETITLE: TS BOND ANGLE DIHED IMPRP ELECT VDW BOUNDARY MISC KINETIC TOTAL TEMP POTENTIAL TOTAL3 TEMPAVG PRESSURE GPRESSURE VOLUME PRESSAVG GPRESSAVG
ENERGY: 40000 1667.5070 2362.0874 3194.3930 0.0000 -175659.2034 19992.3264 73.7553 0.0000 31159.8865 -117209.2478 302.9584 -148369.1343 -117164.4231 302.9584 -32.2694 -73.2588 499151.9050 -32.2694 -73.2588
ENERGY: 41000 1622.4182 2365.3292 3221.5328 0.0000 -175474.6393 19858.6573 116.7491 0.0000 30887.5575 -117402.3951 300.3106 -148289.9526 -117361.0839 300.3046 -100.4045 -96.6981 498452.6729 0.9031 1.0175
ENERGY: 42000 1679.1493 2424.8668 3243.2257 0.0000 -175934.5410 20043.2583 115.3077 0.0000 31112.1048 -117316.6285 302.4938 -148428.7332 -117272.6847 300.6923 -22.9985 -79.7840 498167.9623 1.7345 1.8930
ENERGY: 43000 1623.3656 2346.8970 3178.4151 0.0000 -175556.9461 19968.0279 118.4645 0.0000 30787.8541 -117533.9219 299.3412 -148321.7760 -117485.0433 299.4741 -218.8940 -102.4463 498533.6393 2.0772 2.6011
ENERGY: 44000 1642.5964 2421.3096 3175.6440 0.0000 -175682.1667 19966.8949 116.1801 0.0000 30739.3187 -117620.2229 298.8693 -148359.5416 -117568.0187 299.8301 83.4169 93.3835 498454.5394 11.9938 12.1885
ENERGY: 45000 1582.0428 2381.3677 3220.3367 0.0000 -175866.5128 19991.0158 121.8193 0.0000 30768.5664 -117801.3639 299.1537 -148569.9303 -117765.7269 298.1300 -24.7128 15.3658 496276.9929 -7.3137 -7.0018
TCL: Setting parameter constraintScaling to 0.01953125
TCL: Running for 5000 steps
ETITLE: TS BOND ANGLE DIHED IMPRP ELECT VDW BOUNDARY MISC KINETIC TOTAL TEMP POTENTIAL TOTAL3 TEMPAVG PRESSURE GPRESSURE VOLUME PRESSAVG GPRESSAVG
ENERGY: 45000 1582.0428 2381.3677 3220.3367 0.0000 -175866.5128 19991.0158 60.9097 0.0000 30766.5077 -117864.3323 299.1337 -148630.8400 -117822.0768 299.1337 -40.7938 -4.2446 496276.9929 -40.7938 -4.2446
ENERGY: 46000 1614.4850 2389.9643 3214.4547 0.0000 -176249.7520 20154.9402 72.5254 0.0000 30767.6579 -118035.7246 299.1449 -148803.3824 -117997.2910 298.2857 -8.0407 41.4470 495504.6768 -5.7514 -6.6514
ENERGY: 47000 1663.0317 2465.8949 3186.8985 0.0000 -176250.2878 20141.9602 77.1439 0.0000 30762.5501 -117952.8085 299.0952 -148715.3586 -117914.2931 299.9903 -43.1883 -3.2689 495650.2096 3.6254 3.9375
ENERGY: 48000 1675.8928 2379.9697 3226.3854 0.0000 -175961.8713 19957.8130 84.8441 0.0000 30930.1402 -117706.8261 300.7246 -148636.9664 -117662.2727 299.9185 -34.5999 -40.4429 496036.3414 -7.5592 -7.1363
ENERGY: 49000 1655.6452 2447.8524 3228.8845 0.0000 -176159.4319 20184.8713 85.5998 0.0000 30776.4638 -117780.1148 299.2305 -148556.5786 -117728.7586 299.9546 45.8612 7.1746 495706.2746 -4.9542 -4.8419
ENERGY: 50000 1588.0979 2362.7429 3224.4789 0.0000 -176423.7652 20142.5759 86.1214 0.0000 30897.9947 -118121.7534 300.4121 -149019.7481 -118079.6392 299.2807 -58.7838 -59.2789 495862.6786 2.1359 1.9838
TCL: Setting parameter constraintScaling to 0
TCL: Running for 5000 steps
ETITLE: TS BOND ANGLE DIHED IMPRP ELECT VDW BOUNDARY MISC KINETIC TOTAL TEMP POTENTIAL TOTAL3 TEMPAVG PRESSURE GPRESSURE VOLUME PRESSAVG GPRESSAVG
ENERGY: 50000 1588.0979 2362.7429 3224.4789 0.0000 -176423.7652 20142.5759 0.0000 0.0000 30895.9377 -118209.9319 300.3921 -149105.8696 -118165.3572 300.3921 -62.3345 -52.4059 495862.6786 -62.3345 -52.4059
ENERGY: 51000 1602.4663 2400.3461 3221.7462 0.0000 -176035.9398 20084.5127 0.0000 0.0000 30691.7337 -118035.1348 298.4067 -148726.8685 -117995.2095 299.3443 -70.5911 9.8872 496429.1536 5.3996 5.3166
ENERGY: 52000 1665.6753 2407.6864 3222.4821 0.0000 -175977.8694 20192.7882 0.0000 0.0000 30732.4719 -117756.7656 298.8028 -148489.2374 -117722.3052 299.7111 79.4258 91.2392 497514.2619 5.5576 4.7409
ENERGY: 53000 1630.1391 2382.9835 3225.5074 0.0000 -176219.0497 20051.4878 0.0000 0.0000 30735.5492 -118193.3827 298.8327 -148928.9319 -118134.9196 299.4716 91.2693 76.8426 496601.7237 1.1400 1.5191
ENERGY: 54000 1691.8781 2444.4386 3224.1209 0.0000 -176285.5280 20215.1399 0.0000 0.0000 30718.9769 -117990.9737 298.6715 -148709.9505 -117945.8247 299.0246 123.1799 58.4380 496460.5086 0.8116 0.9523
ENERGY: 55000 1623.3881 2452.7519 3243.1644 0.0000 -176205.3815 20179.4089 0.0000 0.0000 30932.3965 -117774.2716 300.7466 -148706.6681 -117736.7673 299.1701 -152.6600 -115.1345 497012.9441 7.6226 7.9673
