Info: SIMULATION PARAMETERS:
Info: TIMESTEP               2
Info: NUMBER OF STEPS        0
Info: STEPS PER CYCLE        10
Info: PERIODIC CELL BASIS 1  72.449 0 0
Info: PERIODIC CELL BASIS 2  0 93.247 0
Info: PERIODIC CELL BASIS 3  0 0 79.185
Info: PERIODIC CELL CENTER   -0.248 -0.156 -0.047
Info: WRAPPING WATERS AROUND PERIODIC BOUNDARIES ON OUTPUT.
Info: WRAPPING ALL CLUSTERS AROUND PERIODIC BOUNDARIES ON OUTPUT.
Info: FIRST LDB TIMESTEP     50
Info: LAST LDB TIMESTEP     -1
Info: HOM BACKGROUND SCALING 1
Info: PME BACKGROUND SCALING 1
Info: MIN ATOMS PER PATCH    40
Info: INITIAL TEMPERATURE    0
Info: CENTER OF MASS MOVING INITIALLY? NO
Info: DIELECTRIC             1
Info: EXCLUDE                SCALED ONE-FOUR
Info: 1-4 ELECTROSTATICS SCALED BY 0.833333
Info: MODIFIED 1-4 VDW PARAMETERS WILL BE USED
Info: NO DCD TRAJECTORY OUTPUT
Info: NO EXTENDED SYSTEM TRAJECTORY OUTPUT
Info: NO VELOCITY DCD OUTPUT
Info: NO FORCE DCD OUTPUT
Info: OUTPUT FILENAME        ../replicas/rep86/equilibration/eq0
Info: NO RESTART FILE
Info: SWITCHING ACTIVE
Info: SWITCHING ON           10
Info: SWITCHING OFF          12
Info: PAIRLIST DISTANCE      13.5
Info: PAIRLIST SHRINK RATE   0.01
Info: PAIRLIST GROW RATE     0.01
Info: PAIRLIST TRIGGER       0.3
Info: PAIRLISTS PER CYCLE    2
Info: PAIRLISTS ENABLED
Info: MARGIN                 0
Info: HYDROGEN GROUP CUTOFF  2.5
Info: PATCH DIMENSION        16
Info: ENERGY OUTPUT STEPS    500
Info: CROSSTERM ENERGY INCLUDED IN DIHEDRAL
Info: TIMING OUTPUT STEPS    5000
Info: PRESSURE OUTPUT STEPS  500
Info: HARMONIC CONSTRAINTS ACTIVE
Info: HARMONIC CONS EXP      2
Info: HARMONIC CONS SCALING  10
Info: CONJUGATE GRADIENT MINIMIZATION ACTIVE
Info: LINE MINIMIZATION GOAL = 0.001
Info: BABY STEP SIZE = 0.01
Info: TINY STEP SIZE = 1e-06
Info: PARTICLE MESH EWALD (PME) ACTIVE
Info: PME TOLERANCE               1e-06
Info: PME EWALD COEFFICIENT       0.257952
Info: PME INTERPOLATION ORDER     4
Info: PME GRID DIMENSIONS         80 96 80
Info: PME MAXIMUM GRID SPACING    1
Info: FULL ELECTROSTATIC EVALUATION FREQUENCY      2
Info: USING VERLET I (r-RESPA) MTS SCHEME.
Info: C1 SPLITTING OF LONG RANGE ELECTROSTATICS
Info: PLACING ATOMS IN PATCHES BY HYDROGEN GROUPS
Info: RIGID BONDS TO HYDROGEN : ALL
Info:         ERROR TOLERANCE : 1e-05
Info:          MAX ITERATIONS : 100
Info: RIGID WATER USING SETTLE ALGORITHM
Info: RANDOM NUMBER SEED     1503690981
Info: USE HYDROGEN BONDS?    NO
Info: Using AMBER format force field!
Info: AMBER PARM FILE        ../build/complex.top
Info: COORDINATE PDB         ../build/complex.pdb
Info: Exclusions in PARM file will be ignored!
Info: SCNB (VDW SCALING)     2
Info: USING ARITHMETIC MEAN TO COMBINE L-J SIGMA PARAMETERS
Info: SUMMARY OF PARAMETERS:
Info: 71 BONDS
Info: 145 ANGLES
Info: 76 DIHEDRAL
Info: 0 IMPROPER
Info: 0 CROSSTERM
Info: 0 VDW
Info: 190 VDW_PAIRS
Info: 0 NBTHOLE_PAIRS
Info: STRUCTURE SUMMARY:
Info: 49394 ATOMS
Info: 49448 BONDS
Info: 8698 ANGLES
Info: 18780 DIHEDRALS
Info: 0 IMPROPERS
Info: 0 CROSSTERMS
Info: 0 EXCLUSIONS
Info: 2336 CONSTRAINTS
Info: 47058 RIGID BONDS
Info: 101124 DEGREES OF FREEDOM
Info: 17225 HYDROGEN GROUPS
Info: 4 ATOMS IN LARGEST HYDROGEN GROUP
Info: 17225 MIGRATION GROUPS
Info: 4 ATOMS IN LARGEST MIGRATION GROUP
Info: TOTAL MASS = 301478 amu
Info: TOTAL CHARGE = 1.00115e-05 e
Info: MASS DENSITY = 0.935846 g/cm^3
Info: ATOM DENSITY = 0.0923345 atoms/A^3
Info: ADDED 70656 IMPLICIT EXCLUSIONS
Info: NONBONDED TABLE R-SQUARED SPACING: 0.0625
Info: NONBONDED TABLE SIZE: 769 POINTS
Info: REMOVING COM VELOCITY 0 0 0
TCL: Minimizing for 100 steps
ETITLE: TS BOND ANGLE DIHED IMPRP ELECT VDW BOUNDARY MISC KINETIC TOTAL TEMP POTENTIAL TOTAL3 TEMPAVG PRESSURE GPRESSURE VOLUME PRESSAVG GPRESSAVG
ENERGY: 0 155.4176 1012.2698 2855.7272 0.0000 -154496.7912 207729.2052 0.0468 0.0000 0.0000 57255.8754 0.0000 57255.8754 57255.8754 0.0000 116350.2532 86546.1670 534946.2959 116350.2532 86546.1670
ENERGY: 20 304.7564 935.7913 2893.4663 0.0000 -158672.9416 17936.6589 143.9455 0.0000 0.0000 -136458.3232 0.0000 -136458.3232 -136458.3232 0.0000 16523.9381 -239.4565 534946.2959 16523.9381 -239.4565
ENERGY: 40 198.7456 799.5729 2896.9273 0.0000 -162811.4519 16417.9540 221.3030 0.0000 0.0000 -142276.9491 0.0000 -142276.9491 -142276.9491 0.0000 15011.2706 -2135.4694 534946.2959 15011.2706 -2135.4694
ENERGY: 60 130.5282 715.3440 2898.2166 0.0000 -167496.1564 15446.7540 315.2796 0.0000 0.0000 -147990.0340 0.0000 -147990.0340 -147990.0340 0.0000 13793.8838 -3799.3985 534946.2959 13793.8838 -3799.3985
ENERGY: 80 431.2712 765.6304 2904.3787 0.0000 -169937.5296 15121.1523 372.0123 0.0000 0.0000 -150343.0846 0.0000 -150343.0846 -150343.0846 0.0000 13270.3308 -4577.2443 534946.2959 13270.3308 -4577.2443
ENERGY: 100 119.3852 710.0600 2905.2591 0.0000 -171259.7120 14991.7870 387.3613 0.0000 0.0000 -152145.8594 0.0000 -152145.8594 -152145.8594 0.0000 13056.2655 -4908.1720 534946.2959 13056.2655 -4908.1720
TCL: Setting parameter constraintScaling to 5.0
TCL: Minimizing for 100 steps
ETITLE: TS BOND ANGLE DIHED IMPRP ELECT VDW BOUNDARY MISC KINETIC TOTAL TEMP POTENTIAL TOTAL3 TEMPAVG PRESSURE GPRESSURE VOLUME PRESSAVG GPRESSAVG
ENERGY: 100 119.3852 710.0600 2905.2591 0.0000 -171259.7120 14991.7870 193.6807 0.0000 0.0000 -152339.5401 0.0000 -152339.5401 -152339.5401 0.0000 13672.7716 -23021.8184 534946.2959 13672.7716 -23021.8184
ENERGY: 120 108.8820 687.5838 2912.9266 0.0000 -172865.8860 14798.2706 281.1918 0.0000 0.0000 -154077.0312 0.0000 -154077.0312 -154077.0312 0.0000 13218.2545 -4906.0174 534946.2959 13218.2545 -4906.0174
ENERGY: 140 309.4150 708.8656 2913.8024 0.0000 -174236.6866 14731.4805 326.6397 0.0000 0.0000 -155246.4833 0.0000 -155246.4833 -155246.4833 0.0000 12971.5256 -5303.2464 534946.2959 12971.5256 -5303.2464
ENERGY: 160 265.2877 683.1313 2923.1770 0.0000 -176275.5863 14757.3512 382.8986 0.0000 0.0000 -157263.7406 0.0000 -157263.7406 -157263.7406 0.0000 12740.9274 -5743.1516 534946.2959 12740.9274 -5743.1516
ENERGY: 180 268.8582 744.0950 2928.5658 0.0000 -178995.5322 15023.5348 473.3087 0.0000 0.0000 -159557.1695 0.0000 -159557.1695 -159557.1695 0.0000 12521.5957 -6223.9454 534946.2959 12521.5957 -6223.9454
ENERGY: 200 238.9367 694.0876 2941.3650 0.0000 -181556.4295 15587.0899 546.2691 0.0000 0.0000 -161548.6813 0.0000 -161548.6813 -161548.6813 0.0000 12582.6488 -6431.1798 534946.2959 12582.6488 -6431.1798
TCL: Setting parameter constraintScaling to 2.5
TCL: Minimizing for 100 steps
ETITLE: TS BOND ANGLE DIHED IMPRP ELECT VDW BOUNDARY MISC KINETIC TOTAL TEMP POTENTIAL TOTAL3 TEMPAVG PRESSURE GPRESSURE VOLUME PRESSAVG GPRESSAVG
ENERGY: 200 238.9367 694.0876 2941.3650 0.0000 -181556.4295 15587.0899 273.1346 0.0000 0.0000 -161821.8159 0.0000 -161821.8159 -161821.8159 0.0000 13229.5603 -25661.9988 534946.2959 13229.5603 -25661.9988
ENERGY: 220 251.1238 679.9314 2933.0267 0.0000 -182083.0162 15470.9525 338.5773 0.0000 0.0000 -162409.4045 0.0000 -162409.4045 -162409.4045 0.0000 12967.9559 -6101.3826 534946.2959 12967.9559 -6101.3826
ENERGY: 240 139.2996 665.8062 2928.6027 0.0000 -182462.6455 15494.2616 343.5880 0.0000 0.0000 -162891.0874 0.0000 -162891.0874 -162891.0874 0.0000 13034.3294 -6114.3131 534946.2959 13034.3294 -6114.3131
ENERGY: 260 164.5541 683.7565 2921.6088 0.0000 -183940.9799 15800.1435 385.4748 0.0000 0.0000 -163985.4421 0.0000 -163985.4421 -163985.4421 0.0000 13031.8035 -6253.2871 534946.2959 13031.8035 -6253.2871
ENERGY: 280 169.0032 700.8795 2917.6006 0.0000 -185422.6214 16228.7473 454.8435 0.0000 0.0000 -164951.5474 0.0000 -164951.5474 -164951.5474 0.0000 13143.4253 -6345.4294 534946.2959 13143.4253 -6345.4294
ENERGY: 300 126.6743 639.5394 2916.2518 0.0000 -186094.6342 16445.7652 481.3765 0.0000 0.0000 -165485.0270 0.0000 -165485.0270 -165485.0270 0.0000 13207.7180 -6349.5918 534946.2959 13207.7180 -6349.5918
TCL: Setting parameter constraintScaling to 1.25
TCL: Minimizing for 100 steps
ETITLE: TS BOND ANGLE DIHED IMPRP ELECT VDW BOUNDARY MISC KINETIC TOTAL TEMP POTENTIAL TOTAL3 TEMPAVG PRESSURE GPRESSURE VOLUME PRESSAVG GPRESSAVG
ENERGY: 300 126.6743 639.5394 2916.2518 0.0000 -186094.6342 16445.7652 240.6882 0.0000 0.0000 -165725.7153 0.0000 -165725.7153 -165725.7153 0.0000 13656.0654 -26359.5760 534946.2959 13656.0654 -26359.5760
ENERGY: 320 151.9497 633.4869 2910.3667 0.0000 -186874.4095 16640.0021 285.1686 0.0000 0.0000 -166253.4356 0.0000 -166253.4356 -166253.4356 0.0000 13627.8955 -6002.2165 534946.2959 13627.8955 -6002.2165
ENERGY: 340 145.9566 627.8121 2911.6631 0.0000 -187699.2573 16920.0866 307.3518 0.0000 0.0000 -166786.3872 0.0000 -166786.3872 -166786.3872 0.0000 13657.8516 -6034.2417 534946.2959 13657.8516 -6034.2417
ENERGY: 360 134.3150 650.0160 2903.7240 0.0000 -189407.5796 17533.2181 364.7978 0.0000 0.0000 -167821.5086 0.0000 -167821.5086 -167821.5086 0.0000 13976.3725 -5959.5615 534946.2959 13976.3725 -5959.5615
ENERGY: 380 137.1081 632.5577 2898.5820 0.0000 -190626.3996 18017.3772 406.8275 0.0000 0.0000 -168533.9471 0.0000 -168533.9471 -168533.9471 0.0000 14108.9912 -5946.8722 534946.2959 14108.9912 -5946.8722
ENERGY: 400 138.8899 652.9656 2902.3397 0.0000 -190944.4543 18094.7278 403.2323 0.0000 0.0000 -168752.2990 0.0000 -168752.2990 -168752.2990 0.0000 14177.1310 -5927.9712 534946.2959 14177.1310 -5927.9712
TCL: Setting parameter constraintScaling to 0.625
TCL: Minimizing for 100 steps
ETITLE: TS BOND ANGLE DIHED IMPRP ELECT VDW BOUNDARY MISC KINETIC TOTAL TEMP POTENTIAL TOTAL3 TEMPAVG PRESSURE GPRESSURE VOLUME PRESSAVG GPRESSAVG
ENERGY: 400 138.8899 652.9656 2902.3397 0.0000 -190944.4543 18094.7278 201.6161 0.0000 0.0000 -168953.9151 0.0000 -168953.9151 -168953.9151 0.0000 14479.5294 -26674.7075 534946.2959 14479.5294 -26674.7075
ENERGY: 420 149.6282 642.5907 2898.1695 0.0000 -191200.3623 18164.3318 215.1428 0.0000 0.0000 -169130.4994 0.0000 -169130.4994 -169130.4994 0.0000 14417.8870 -5693.9285 534946.2959 14417.8870 -5693.9285
ENERGY: 440 154.6100 630.7884 2891.3832 0.0000 -191746.9882 18326.5341 238.4740 0.0000 0.0000 -169505.1986 0.0000 -169505.1986 -169505.1986 0.0000 14440.7847 -5724.9958 534946.2959 14440.7847 -5724.9958
ENERGY: 460 189.7481 678.2493 2898.2334 0.0000 -192804.4368 18720.2056 255.0742 0.0000 0.0000 -170062.9263 0.0000 -170062.9263 -170062.9263 0.0000 14721.6285 -5609.6795 534946.2959 14721.6285 -5609.6795
ENERGY: 480 142.3659 633.6060 2885.0206 0.0000 -193332.1486 18907.1601 276.6656 0.0000 0.0000 -170487.3304 0.0000 -170487.3304 -170487.3304 0.0000 14716.3950 -5637.6620 534946.2959 14716.3950 -5637.6620
ENERGY: 500 167.7170 709.0264 2886.5423 0.0000 -193982.5776 19143.5049 310.5647 0.0000 0.0000 -170765.2224 0.0000 -170765.2224 -170765.2224 0.0000 14747.0826 -5688.8404 534946.2959 14747.0826 -5688.8404
TCL: Setting parameter constraintScaling to 0.3125
TCL: Minimizing for 100 steps
ETITLE: TS BOND ANGLE DIHED IMPRP ELECT VDW BOUNDARY MISC KINETIC TOTAL TEMP POTENTIAL TOTAL3 TEMPAVG PRESSURE GPRESSURE VOLUME PRESSAVG GPRESSAVG
ENERGY: 500 167.7170 709.0264 2886.5423 0.0000 -193982.5777 19143.5049 155.2823 0.0000 0.0000 -170920.5047 0.0000 -170920.5047 -170920.5047 0.0000 14942.0520 -26916.9888 534946.2959 14942.0520 -26916.9888
ENERGY: 520 162.3528 652.7747 2882.9564 0.0000 -194311.4532 19262.1334 155.3311 0.0000 0.0000 -171195.9048 0.0000 -171195.9048 -171195.9048 0.0000 15063.1356 -5407.5061 534946.2959 15063.1356 -5407.5061
ENERGY: 540 159.8328 677.3801 2878.4715 0.0000 -195629.6060 19749.4881 195.0652 0.0000 0.0000 -171969.3683 0.0000 -171969.3683 -171969.3683 0.0000 15193.0779 -5415.3437 534946.2959 15193.0779 -5415.3437
ENERGY: 560 188.2097 691.2435 2869.8494 0.0000 -196916.4942 20294.3887 234.8487 0.0000 0.0000 -172637.9542 0.0000 -172637.9542 -172637.9542 0.0000 15411.7566 -5351.7536 534946.2959 15411.7566 -5351.7536
ENERGY: 580 161.6061 655.4331 2866.3853 0.0000 -197012.5772 20323.5587 230.4023 0.0000 0.0000 -172775.1918 0.0000 -172775.1918 -172775.1918 0.0000 15432.8935 -5339.2452 534946.2959 15432.8935 -5339.2452
ENERGY: 600 169.4004 690.5695 2878.4848 0.0000 -197408.8091 20486.2744 222.2699 0.0000 0.0000 -172961.8101 0.0000 -172961.8101 -172961.8101 0.0000 15608.4421 -5229.8775 534946.2959 15608.4421 -5229.8775
TCL: Setting parameter constraintScaling to 0.15625
TCL: Minimizing for 100 steps
ETITLE: TS BOND ANGLE DIHED IMPRP ELECT VDW BOUNDARY MISC KINETIC TOTAL TEMP POTENTIAL TOTAL3 TEMPAVG PRESSURE GPRESSURE VOLUME PRESSAVG GPRESSAVG
ENERGY: 600 169.4004 690.5695 2878.4848 0.0000 -197408.8091 20486.2744 111.1349 0.0000 0.0000 -173072.9451 0.0000 -173072.9451 -173072.9451 0.0000 15730.5298 -26947.2535 534946.2959 15730.5298 -26947.2535
ENERGY: 620 362.2173 765.6927 2869.7430 0.0000 -198051.4075 20687.6417 128.1310 0.0000 0.0000 -173237.9818 0.0000 -173237.9818 -173237.9818 0.0000 15713.1871 -5206.9371 534946.2959 15713.1871 -5206.9371
ENERGY: 640 174.5981 646.5573 2858.6550 0.0000 -198166.8460 20724.1570 127.8414 0.0000 0.0000 -173635.0372 0.0000 -173635.0372 -173635.0372 0.0000 15724.7131 -5171.4334 534946.2959 15724.7131 -5171.4334
ENERGY: 660 285.2057 711.0539 2857.6504 0.0000 -198746.7603 20932.3688 137.2835 0.0000 0.0000 -173823.1979 0.0000 -173823.1979 -173823.1979 0.0000 15744.9860 -5226.3218 534946.2959 15744.9860 -5226.3218
ENERGY: 680 164.4713 676.0750 2852.5199 0.0000 -198839.3507 20965.0386 138.1502 0.0000 0.0000 -174043.0957 0.0000 -174043.0957 -174043.0957 0.0000 15838.9467 -5153.1877 534946.2959 15838.9467 -5153.1877
ENERGY: 700 185.1026 664.0874 2851.7064 0.0000 -199817.8058 21339.2167 146.9609 0.0000 0.0000 -174630.7319 0.0000 -174630.7319 -174630.7319 0.0000 15999.8477 -5084.2141 534946.2959 15999.8477 -5084.2141
TCL: Setting parameter constraintScaling to 0.078125
TCL: Minimizing for 100 steps
ETITLE: TS BOND ANGLE DIHED IMPRP ELECT VDW BOUNDARY MISC KINETIC TOTAL TEMP POTENTIAL TOTAL3 TEMPAVG PRESSURE GPRESSURE VOLUME PRESSAVG GPRESSAVG
ENERGY: 700 185.1026 664.0874 2851.7064 0.0000 -199817.8058 21339.2167 73.4804 0.0000 0.0000 -174704.2123 0.0000 -174704.2123 -174704.2123 0.0000 16072.4673 -27186.0684 534946.2959 16072.4673 -27186.0684
ENERGY: 720 156.3874 651.6151 2843.2656 0.0000 -199948.3031 21378.7081 75.0524 0.0000 0.0000 -174843.2744 0.0000 -174843.2744 -174843.2744 0.0000 16154.5921 -4978.1180 534946.2959 16154.5921 -4978.1180
ENERGY: 740 156.7809 658.6997 2841.8435 0.0000 -200233.6151 21477.9876 78.8660 0.0000 0.0000 -175019.4375 0.0000 -175019.4375 -175019.4375 0.0000 16191.1252 -4975.8105 534946.2959 16191.1252 -4975.8105
ENERGY: 760 170.2294 670.7437 2843.0801 0.0000 -200610.5569 21619.2061 82.2734 0.0000 0.0000 -175225.0242 0.0000 -175225.0242 -175225.0242 0.0000 16232.9643 -4958.6083 534946.2959 16232.9643 -4958.6083
ENERGY: 780 162.0612 671.0090 2842.2928 0.0000 -201273.7624 21871.4250 88.5494 0.0000 0.0000 -175638.4251 0.0000 -175638.4251 -175638.4251 0.0000 16366.0335 -4914.6169 534946.2959 16366.0335 -4914.6169
ENERGY: 800 168.3999 647.0991 2836.0640 0.0000 -201383.9766 21909.6937 89.3200 0.0000 0.0000 -175733.3998 0.0000 -175733.3998 -175733.3998 0.0000 16354.7519 -4918.5426 534946.2959 16354.7519 -4918.5426
TCL: Setting parameter constraintScaling to 0.0390625
TCL: Minimizing for 100 steps
ETITLE: TS BOND ANGLE DIHED IMPRP ELECT VDW BOUNDARY MISC KINETIC TOTAL TEMP POTENTIAL TOTAL3 TEMPAVG PRESSURE GPRESSURE VOLUME PRESSAVG GPRESSAVG
ENERGY: 800 168.3999 647.0991 2836.0640 0.0000 -201383.9766 21909.6937 44.6600 0.0000 0.0000 -175778.0598 0.0000 -175778.0598 -175778.0598 0.0000 16395.4567 -27230.5491 534946.2959 16395.4567 -27230.5491
ENERGY: 820 191.5668 668.4617 2832.1682 0.0000 -201552.7356 21977.7163 45.8084 0.0000 0.0000 -175837.0141 0.0000 -175837.0141 -175837.0141 0.0000 16446.0884 -4864.7632 534946.2959 16446.0884 -4864.7632
ENERGY: 840 166.5558 661.6628 2832.2938 0.0000 -201915.8347 22113.8146 47.7767 0.0000 0.0000 -176093.7310 0.0000 -176093.7310 -176093.7310 0.0000 16522.9022 -4841.1923 534946.2959 16522.9022 -4841.1923
ENERGY: 860 160.7151 649.0536 2825.1804 0.0000 -202502.8971 22351.2313 50.7186 0.0000 0.0000 -176465.9981 0.0000 -176465.9981 -176465.9981 0.0000 16624.9505 -4792.0614 534946.2959 16624.9505 -4792.0614
ENERGY: 880 198.9719 681.8860 2828.5492 0.0000 -202855.5648 22496.0028 52.7720 0.0000 0.0000 -176597.3829 0.0000 -176597.3829 -176597.3829 0.0000 16663.8603 -4785.1310 534946.2959 16663.8603 -4785.1310
ENERGY: 900 174.4778 655.7313 2820.4241 0.0000 -203839.7625 22933.6842 56.8294 0.0000 0.0000 -177198.6157 0.0000 -177198.6157 -177198.6157 0.0000 16941.9297 -4643.4853 534946.2959 16941.9297 -4643.4853
TCL: Setting parameter constraintScaling to 0.01953125
TCL: Minimizing for 100 steps
ETITLE: TS BOND ANGLE DIHED IMPRP ELECT VDW BOUNDARY MISC KINETIC TOTAL TEMP POTENTIAL TOTAL3 TEMPAVG PRESSURE GPRESSURE VOLUME PRESSAVG GPRESSAVG
ENERGY: 900 174.4778 655.7313 2820.4241 0.0000 -203839.7625 22933.6842 28.4147 0.0000 0.0000 -177227.0304 0.0000 -177227.0304 -177227.0304 0.0000 16965.6882 -27251.8100 534946.2959 16965.6882 -27251.8100
ENERGY: 920 163.3722 648.5885 2817.0195 0.0000 -203937.8985 22967.1262 28.9246 0.0000 0.0000 -177312.8675 0.0000 -177312.8675 -177312.8675 0.0000 16962.9696 -4622.1850 534946.2959 16962.9696 -4622.1850
ENERGY: 940 244.4640 667.8281 2815.2118 0.0000 -204437.4864 23180.3783 30.7036 0.0000 0.0000 -177498.9006 0.0000 -177498.9006 -177498.9006 0.0000 17062.5194 -4586.1561 534946.2959 17062.5194 -4586.1561
ENERGY: 960 219.3459 658.5000 2811.2325 0.0000 -204888.6250 23377.7821 31.8994 0.0000 0.0000 -177789.8651 0.0000 -177789.8651 -177789.8651 0.0000 17169.9198 -4526.4604 534946.2959 17169.9198 -4526.4604
ENERGY: 980 162.5220 659.2227 2813.4869 0.0000 -204900.6668 23378.9493 31.9703 0.0000 0.0000 -177854.5156 0.0000 -177854.5156 -177854.5156 0.0000 17168.0754 -4531.9935 534946.2959 17168.0754 -4531.9935
ENERGY: 1000 190.2599 660.5703 2810.2261 0.0000 -205178.4607 23505.9008 32.7067 0.0000 0.0000 -177978.7970 0.0000 -177978.7970 -177978.7970 0.0000 17221.4521 -4499.6544 534946.2959 17221.4521 -4499.6544
TCL: Setting parameter constraintScaling to 0
TCL: Minimizing for 5000 steps
ETITLE: TS BOND ANGLE DIHED IMPRP ELECT VDW BOUNDARY MISC KINETIC TOTAL TEMP POTENTIAL TOTAL3 TEMPAVG PRESSURE GPRESSURE VOLUME PRESSAVG GPRESSAVG
ENERGY: 1000 190.2599 660.5703 2810.2261 0.0000 -205178.4607 23505.9008 0.0000 0.0000 0.0000 -178011.5037 0.0000 -178011.5037 -178011.5037 0.0000 17247.5301 -27286.0172 534946.2959 17247.5301 -27286.0172
ENERGY: 2000 167.4864 662.9516 2798.6170 0.0000 -214814.5673 27771.0767 0.0000 0.0000 0.0000 -183414.4356 0.0000 -183414.4356 -183414.4356 0.0000 19524.6155 -3296.8358 534946.2959 19524.6155 -3296.8358
ENERGY: 3000 243.4275 698.4787 2799.9650 0.0000 -217358.6058 28837.6856 0.0000 0.0000 0.0000 -184779.0489 0.0000 -184779.0489 -184779.0489 0.0000 20076.7131 -2997.1357 534946.2959 20076.7131 -2997.1357
ENERGY: 4000 174.8387 670.2471 2794.0414 0.0000 -218764.1649 29391.2769 0.0000 0.0000 0.0000 -185733.7608 0.0000 -185733.7608 -185733.7608 0.0000 20379.9500 -2838.3593 534946.2959 20379.9500 -2838.3593
ENERGY: 5000 189.9010 675.8444 2795.3217 0.0000 -219419.1761 29689.1951 0.0000 0.0000 0.0000 -186068.9138 0.0000 -186068.9138 -186068.9138 0.0000 20541.4816 -2738.6059 534946.2959 20541.4816 -2738.6059
ENERGY: 6000 167.5000 667.1571 2795.5070 0.0000 -219854.3306 29849.9820 0.0000 0.0000 0.0000 -186374.1846 0.0000 -186374.1846 -186374.1846 0.0000 20615.1843 -2704.4603 534946.2959 20615.1843 -2704.4603
