Info: SIMULATION PARAMETERS:
Info: TIMESTEP               2
Info: NUMBER OF STEPS        0
Info: STEPS PER CYCLE        10
Info: PERIODIC CELL BASIS 1  72.449 0 0
Info: PERIODIC CELL BASIS 2  0 93.247 0
Info: PERIODIC CELL BASIS 3  0 0 79.185
Info: PERIODIC CELL CENTER   -0.248 -0.156 -0.047
Info: WRAPPING WATERS AROUND PERIODIC BOUNDARIES ON OUTPUT.
Info: WRAPPING ALL CLUSTERS AROUND PERIODIC BOUNDARIES ON OUTPUT.
Info: FIRST LDB TIMESTEP     50
Info: LAST LDB TIMESTEP     -1
Info: HOM BACKGROUND SCALING 1
Info: PME BACKGROUND SCALING 1
Info: MIN ATOMS PER PATCH    40
Info: INITIAL TEMPERATURE    0
Info: CENTER OF MASS MOVING INITIALLY? NO
Info: DIELECTRIC             1
Info: EXCLUDE                SCALED ONE-FOUR
Info: 1-4 ELECTROSTATICS SCALED BY 0.833333
Info: MODIFIED 1-4 VDW PARAMETERS WILL BE USED
Info: NO DCD TRAJECTORY OUTPUT
Info: NO EXTENDED SYSTEM TRAJECTORY OUTPUT
Info: NO VELOCITY DCD OUTPUT
Info: NO FORCE DCD OUTPUT
Info: OUTPUT FILENAME        ../replicas/rep67/equilibration/eq0
Info: NO RESTART FILE
Info: SWITCHING ACTIVE
Info: SWITCHING ON           10
Info: SWITCHING OFF          12
Info: PAIRLIST DISTANCE      13.5
Info: PAIRLIST SHRINK RATE   0.01
Info: PAIRLIST GROW RATE     0.01
Info: PAIRLIST TRIGGER       0.3
Info: PAIRLISTS PER CYCLE    2
Info: PAIRLISTS ENABLED
Info: MARGIN                 0
Info: HYDROGEN GROUP CUTOFF  2.5
Info: PATCH DIMENSION        16
Info: ENERGY OUTPUT STEPS    500
Info: CROSSTERM ENERGY INCLUDED IN DIHEDRAL
Info: TIMING OUTPUT STEPS    5000
Info: PRESSURE OUTPUT STEPS  500
Info: HARMONIC CONSTRAINTS ACTIVE
Info: HARMONIC CONS EXP      2
Info: HARMONIC CONS SCALING  10
Info: CONJUGATE GRADIENT MINIMIZATION ACTIVE
Info: LINE MINIMIZATION GOAL = 0.001
Info: BABY STEP SIZE = 0.01
Info: TINY STEP SIZE = 1e-06
Info: PARTICLE MESH EWALD (PME) ACTIVE
Info: PME TOLERANCE               1e-06
Info: PME EWALD COEFFICIENT       0.257952
Info: PME INTERPOLATION ORDER     4
Info: PME GRID DIMENSIONS         80 96 80
Info: PME MAXIMUM GRID SPACING    1
Info: FULL ELECTROSTATIC EVALUATION FREQUENCY      2
Info: USING VERLET I (r-RESPA) MTS SCHEME.
Info: C1 SPLITTING OF LONG RANGE ELECTROSTATICS
Info: PLACING ATOMS IN PATCHES BY HYDROGEN GROUPS
Info: RIGID BONDS TO HYDROGEN : ALL
Info:         ERROR TOLERANCE : 1e-05
Info:          MAX ITERATIONS : 100
Info: RIGID WATER USING SETTLE ALGORITHM
Info: RANDOM NUMBER SEED     1503701622
Info: USE HYDROGEN BONDS?    NO
Info: Using AMBER format force field!
Info: AMBER PARM FILE        ../build/complex.top
Info: COORDINATE PDB         ../build/complex.pdb
Info: Exclusions in PARM file will be ignored!
Info: SCNB (VDW SCALING)     2
Info: USING ARITHMETIC MEAN TO COMBINE L-J SIGMA PARAMETERS
Info: SUMMARY OF PARAMETERS:
Info: 71 BONDS
Info: 145 ANGLES
Info: 76 DIHEDRAL
Info: 0 IMPROPER
Info: 0 CROSSTERM
Info: 0 VDW
Info: 190 VDW_PAIRS
Info: 0 NBTHOLE_PAIRS
Info: STRUCTURE SUMMARY:
Info: 49394 ATOMS
Info: 49448 BONDS
Info: 8698 ANGLES
Info: 18780 DIHEDRALS
Info: 0 IMPROPERS
Info: 0 CROSSTERMS
Info: 0 EXCLUSIONS
Info: 2336 CONSTRAINTS
Info: 47058 RIGID BONDS
Info: 101124 DEGREES OF FREEDOM
Info: 17225 HYDROGEN GROUPS
Info: 4 ATOMS IN LARGEST HYDROGEN GROUP
Info: 17225 MIGRATION GROUPS
Info: 4 ATOMS IN LARGEST MIGRATION GROUP
Info: TOTAL MASS = 301478 amu
Info: TOTAL CHARGE = 1.00115e-05 e
Info: MASS DENSITY = 0.935846 g/cm^3
Info: ATOM DENSITY = 0.0923345 atoms/A^3
Info: ADDED 70656 IMPLICIT EXCLUSIONS
Info: NONBONDED TABLE R-SQUARED SPACING: 0.0625
Info: NONBONDED TABLE SIZE: 769 POINTS
Info: REMOVING COM VELOCITY 0 0 0
TCL: Minimizing for 100 steps
ETITLE: TS BOND ANGLE DIHED IMPRP ELECT VDW BOUNDARY MISC KINETIC TOTAL TEMP POTENTIAL TOTAL3 TEMPAVG PRESSURE GPRESSURE VOLUME PRESSAVG GPRESSAVG
ENERGY: 0 155.4176 1012.2698 2855.7272 0.0000 -154496.7913 207729.2052 0.0468 0.0000 0.0000 57255.8753 0.0000 57255.8753 57255.8753 0.0000 116350.2532 86546.1670 534946.2959 116350.2532 86546.1670
ENERGY: 20 304.7547 935.7911 2893.4663 0.0000 -158672.9402 17936.6596 143.9454 0.0000 0.0000 -136458.3231 0.0000 -136458.3231 -136458.3231 0.0000 16523.9389 -239.4556 534946.2959 16523.9389 -239.4556
ENERGY: 40 198.7424 799.5724 2896.9273 0.0000 -162811.4533 16417.9537 221.3029 0.0000 0.0000 -142276.9546 0.0000 -142276.9546 -142276.9546 0.0000 15011.2703 -2135.4698 534946.2959 15011.2703 -2135.4698
ENERGY: 60 130.5285 715.3440 2898.2166 0.0000 -167496.1540 15446.7544 315.2795 0.0000 0.0000 -147990.0310 0.0000 -147990.0310 -147990.0310 0.0000 13793.8844 -3799.3977 534946.2959 13793.8844 -3799.3977
ENERGY: 80 431.2747 765.6310 2904.3784 0.0000 -169937.5236 15121.1530 372.0121 0.0000 0.0000 -150343.0743 0.0000 -150343.0743 -150343.0743 0.0000 13270.3324 -4577.2430 534946.2959 13270.3324 -4577.2430
ENERGY: 100 119.3886 710.0604 2905.2589 0.0000 -171259.7184 14991.7863 387.3613 0.0000 0.0000 -152145.8629 0.0000 -152145.8629 -152145.8629 0.0000 13056.2645 -4908.1742 534946.2959 13056.2645 -4908.1742
TCL: Setting parameter constraintScaling to 5.0
TCL: Minimizing for 100 steps
ETITLE: TS BOND ANGLE DIHED IMPRP ELECT VDW BOUNDARY MISC KINETIC TOTAL TEMP POTENTIAL TOTAL3 TEMPAVG PRESSURE GPRESSURE VOLUME PRESSAVG GPRESSAVG
ENERGY: 100 119.3886 710.0604 2905.2589 0.0000 -171259.7184 14991.7863 193.6807 0.0000 0.0000 -152339.5436 0.0000 -152339.5436 -152339.5436 0.0000 13672.7707 -23021.8205 534946.2959 13672.7707 -23021.8205
ENERGY: 120 108.8886 687.5864 2912.9269 0.0000 -172865.8709 14798.2711 281.1916 0.0000 0.0000 -154077.0063 0.0000 -154077.0063 -154077.0063 0.0000 13218.2562 -4906.0137 534946.2959 13218.2562 -4906.0137
ENERGY: 140 309.5079 708.8812 2913.8027 0.0000 -174236.5071 14731.4901 326.6347 0.0000 0.0000 -155246.1906 0.0000 -155246.1906 -155246.1906 0.0000 12971.5426 -5303.2070 534946.2959 12971.5426 -5303.2070
ENERGY: 160 264.8717 683.0076 2923.1528 0.0000 -176273.1564 14757.2069 382.8082 0.0000 0.0000 -157262.1093 0.0000 -157262.1093 -157262.1093 0.0000 12741.2345 -5732.9002 534946.2959 12741.2345 -5732.9002
ENERGY: 180 269.1339 744.0904 2928.5663 0.0000 -178993.6757 15023.2257 473.2125 0.0000 0.0000 -159555.4470 0.0000 -159555.4470 -159555.4470 0.0000 12521.6961 -6213.9492 534946.2959 12521.6961 -6213.9492
ENERGY: 200 238.6582 694.1204 2941.3474 0.0000 -181555.0597 15586.7720 546.2442 0.0000 0.0000 -161547.9175 0.0000 -161547.9175 -161547.9175 0.0000 12582.6284 -6421.4808 534946.2959 12582.6284 -6421.4808
TCL: Setting parameter constraintScaling to 2.5
TCL: Minimizing for 100 steps
ETITLE: TS BOND ANGLE DIHED IMPRP ELECT VDW BOUNDARY MISC KINETIC TOTAL TEMP POTENTIAL TOTAL3 TEMPAVG PRESSURE GPRESSURE VOLUME PRESSAVG GPRESSAVG
ENERGY: 200 238.6582 694.1204 2941.3474 0.0000 -181555.0597 15586.7720 273.1221 0.0000 0.0000 -161821.0396 0.0000 -161821.0396 -161821.0396 0.0000 13229.5070 -25652.1876 534946.2959 13229.5070 -25652.1876
ENERGY: 220 251.1318 680.1526 2933.0288 0.0000 -182082.8755 15470.4324 338.7383 0.0000 0.0000 -162409.3917 0.0000 -162409.3917 -162409.3917 0.0000 12967.2290 -6092.4347 534946.2959 12967.2290 -6092.4347
ENERGY: 240 139.0353 665.3702 2928.5705 0.0000 -182461.3467 15493.7021 343.6726 0.0000 0.0000 -162890.9960 0.0000 -162890.9960 -162890.9960 0.0000 13033.8207 -6104.9009 534946.2959 13033.8207 -6104.9009
ENERGY: 260 225.1728 701.4236 2922.5509 0.0000 -183733.5494 15754.0829 378.4905 0.0000 0.0000 -163751.8286 0.0000 -163751.8286 -163751.8286 0.0000 13014.7772 -6233.0169 534946.2959 13014.7772 -6233.0169
ENERGY: 280 128.8351 694.8828 2917.7045 0.0000 -185298.8115 16185.6621 447.1241 0.0000 0.0000 -164924.6029 0.0000 -164924.6029 -164924.6029 0.0000 13138.7752 -6324.1934 534946.2959 13138.7752 -6324.1934
ENERGY: 300 118.5862 636.5482 2916.7046 0.0000 -186059.9663 16435.1362 480.8754 0.0000 0.0000 -165472.1158 0.0000 -165472.1158 -165472.1158 0.0000 13204.3165 -6338.1419 534946.2959 13204.3165 -6338.1419
TCL: Setting parameter constraintScaling to 1.25
TCL: Minimizing for 100 steps
ETITLE: TS BOND ANGLE DIHED IMPRP ELECT VDW BOUNDARY MISC KINETIC TOTAL TEMP POTENTIAL TOTAL3 TEMPAVG PRESSURE GPRESSURE VOLUME PRESSAVG GPRESSAVG
ENERGY: 300 118.5862 636.5482 2916.7046 0.0000 -186059.9663 16435.1362 240.4377 0.0000 0.0000 -165712.5535 0.0000 -165712.5535 -165712.5535 0.0000 13652.5874 -26344.8984 534946.2959 13652.5874 -26344.8984
ENERGY: 320 250.8760 661.5238 2912.1554 0.0000 -186746.8444 16598.6098 282.1378 0.0000 0.0000 -166041.5416 0.0000 -166041.5416 -166041.5416 0.0000 13583.0322 -6026.7641 534946.2959 13583.0322 -6026.7641
ENERGY: 340 142.0908 623.8344 2909.4040 0.0000 -187253.9451 16772.1292 291.1903 0.0000 0.0000 -166515.2962 0.0000 -166515.2962 -166515.2962 0.0000 13692.9983 -5972.7358 534946.2959 13692.9983 -5972.7358
ENERGY: 360 358.0957 691.3339 2909.7535 0.0000 -189004.1897 17377.1581 352.7956 0.0000 0.0000 -167315.0529 0.0000 -167315.0529 -167315.0529 0.0000 13879.3244 -6006.3421 534946.2959 13879.3244 -6006.3421
ENERGY: 380 272.2394 648.0464 2902.3956 0.0000 -190617.7895 17992.5924 403.0924 0.0000 0.0000 -168399.4233 0.0000 -168399.4233 -168399.4233 0.0000 14053.1690 -5973.8160 534946.2959 14053.1690 -5973.8160
ENERGY: 400 140.8648 653.1116 2901.2331 0.0000 -190768.3549 18026.7806 398.0934 0.0000 0.0000 -168648.2713 0.0000 -168648.2713 -168648.2713 0.0000 14166.2565 -5911.6148 534946.2959 14166.2565 -5911.6148
TCL: Setting parameter constraintScaling to 0.625
TCL: Minimizing for 100 steps
ETITLE: TS BOND ANGLE DIHED IMPRP ELECT VDW BOUNDARY MISC KINETIC TOTAL TEMP POTENTIAL TOTAL3 TEMPAVG PRESSURE GPRESSURE VOLUME PRESSAVG GPRESSAVG
ENERGY: 400 140.8648 653.1116 2901.2331 0.0000 -190768.3549 18026.7806 199.0467 0.0000 0.0000 -168847.3181 0.0000 -168847.3181 -168847.3181 0.0000 14465.8446 -26635.5584 534946.2959 14465.8446 -26635.5584
ENERGY: 420 174.2097 658.2696 2894.1914 0.0000 -191291.8164 18165.8696 224.1275 0.0000 0.0000 -169175.1486 0.0000 -169175.1486 -169175.1486 0.0000 14501.0935 -5653.7674 534946.2959 14501.0935 -5653.7674
ENERGY: 440 338.0907 691.6320 2890.9991 0.0000 -192190.3547 18475.3873 253.4891 0.0000 0.0000 -169540.7565 0.0000 -169540.7565 -169540.7565 0.0000 14528.3088 -5704.0821 534946.2959 14528.3088 -5704.0821
ENERGY: 460 205.9253 649.7514 2886.1868 0.0000 -193147.2179 18822.0593 284.4970 0.0000 0.0000 -170298.7982 0.0000 -170298.7982 -170298.7982 0.0000 14596.1942 -5706.6086 534946.2959 14596.1942 -5706.6086
ENERGY: 480 142.5428 642.8888 2883.4211 0.0000 -193222.6086 18850.2659 283.6405 0.0000 0.0000 -170419.8495 0.0000 -170419.8495 -170419.8495 0.0000 14706.3623 -5648.0431 534946.2959 14706.3623 -5648.0431
ENERGY: 500 164.3751 642.1810 2879.6271 0.0000 -194018.7979 19160.5757 296.5889 0.0000 0.0000 -170875.4501 0.0000 -170875.4501 -170875.4501 0.0000 14838.2480 -5601.0324 534946.2959 14838.2480 -5601.0324
TCL: Setting parameter constraintScaling to 0.3125
TCL: Minimizing for 100 steps
ETITLE: TS BOND ANGLE DIHED IMPRP ELECT VDW BOUNDARY MISC KINETIC TOTAL TEMP POTENTIAL TOTAL3 TEMPAVG PRESSURE GPRESSURE VOLUME PRESSAVG GPRESSAVG
ENERGY: 500 164.3751 642.1810 2879.6271 0.0000 -194018.7979 19160.5757 148.2944 0.0000 0.0000 -171023.7446 0.0000 -171023.7446 -171023.7446 0.0000 15029.5385 -26832.8723 534946.2959 15029.5385 -26832.8723
ENERGY: 520 166.5424 645.9673 2879.3052 0.0000 -194379.7753 19279.0743 161.6372 0.0000 0.0000 -171247.2488 0.0000 -171247.2488 -171247.2488 0.0000 14990.9473 -5459.9131 534946.2959 14990.9473 -5459.9131
ENERGY: 540 165.0877 652.7604 2876.2977 0.0000 -194675.3256 19383.9754 168.6578 0.0000 0.0000 -171428.5466 0.0000 -171428.5466 -171428.5466 0.0000 15058.1641 -5436.2597 534946.2959 15058.1641 -5436.2597
ENERGY: 560 152.3211 638.7116 2870.8863 0.0000 -195355.2485 19631.9347 185.5419 0.0000 0.0000 -171875.8529 0.0000 -171875.8529 -171875.8529 0.0000 15159.7866 -5410.0815 534946.2959 15159.7866 -5410.0815
ENERGY: 580 170.1335 665.6081 2874.4164 0.0000 -195957.5569 19857.1149 197.4259 0.0000 0.0000 -172192.8580 0.0000 -172192.8580 -172192.8580 0.0000 15257.1281 -5392.6966 534946.2959 15257.1281 -5392.6966
ENERGY: 600 177.8415 676.3268 2863.6513 0.0000 -197186.9112 20368.8461 216.5914 0.0000 0.0000 -172883.6542 0.0000 -172883.6542 -172883.6542 0.0000 15512.6531 -5278.4049 534946.2959 15512.6531 -5278.4049
TCL: Setting parameter constraintScaling to 0.15625
TCL: Minimizing for 100 steps
ETITLE: TS BOND ANGLE DIHED IMPRP ELECT VDW BOUNDARY MISC KINETIC TOTAL TEMP POTENTIAL TOTAL3 TEMPAVG PRESSURE GPRESSURE VOLUME PRESSAVG GPRESSAVG
ENERGY: 600 177.8415 676.3268 2863.6513 0.0000 -197186.9112 20368.8461 108.2957 0.0000 0.0000 -172991.9499 0.0000 -172991.9499 -172991.9499 0.0000 15633.2208 -26981.8717 534946.2959 15633.2208 -26981.8717
ENERGY: 620 174.8617 673.8006 2866.5682 0.0000 -197472.4911 20453.2413 116.4218 0.0000 0.0000 -173187.5975 0.0000 -173187.5975 -173187.5975 0.0000 15633.8941 -5195.0006 534946.2959 15633.8941 -5195.0006
ENERGY: 640 214.5739 672.3495 2856.9235 0.0000 -197964.7350 20628.7636 125.8922 0.0000 0.0000 -173466.2322 0.0000 -173466.2322 -173466.2322 0.0000 15691.5794 -5179.8861 534946.2959 15691.5794 -5179.8861
ENERGY: 660 154.9304 651.9264 2855.1218 0.0000 -198186.7824 20709.7230 129.1702 0.0000 0.0000 -173685.9107 0.0000 -173685.9107 -173685.9107 0.0000 15732.7535 -5171.2157 534946.2959 15732.7535 -5171.2157
ENERGY: 680 212.3383 673.8537 2863.3503 0.0000 -198831.1576 20956.1879 130.9392 0.0000 0.0000 -173994.4881 0.0000 -173994.4881 -173994.4881 0.0000 15887.7737 -5092.4592 534946.2959 15887.7737 -5092.4592
ENERGY: 700 171.0932 651.2002 2848.0556 0.0000 -199545.0538 21235.8178 141.5758 0.0000 0.0000 -174497.3112 0.0000 -174497.3112 -174497.3112 0.0000 15996.7597 -5056.9968 534946.2959 15996.7597 -5056.9968
TCL: Setting parameter constraintScaling to 0.078125
TCL: Minimizing for 100 steps
ETITLE: TS BOND ANGLE DIHED IMPRP ELECT VDW BOUNDARY MISC KINETIC TOTAL TEMP POTENTIAL TOTAL3 TEMPAVG PRESSURE GPRESSURE VOLUME PRESSAVG GPRESSAVG
ENERGY: 700 171.0932 651.2002 2848.0556 0.0000 -199545.0538 21235.8178 70.7879 0.0000 0.0000 -174568.0991 0.0000 -174568.0991 -174568.0991 0.0000 16068.3296 -27107.0710 534946.2959 16068.3296 -27107.0710
ENERGY: 720 152.8287 647.0064 2848.2594 0.0000 -199677.3753 21270.3732 73.2135 0.0000 0.0000 -174685.6940 0.0000 -174685.6940 -174685.6940 0.0000 16087.7717 -4989.9689 534946.2959 16087.7717 -4989.9689
ENERGY: 740 182.7908 656.6888 2840.1149 0.0000 -199985.5486 21384.3379 77.5622 0.0000 0.0000 -174844.0540 0.0000 -174844.0540 -174844.0540 0.0000 16111.2793 -4994.9815 534946.2959 16111.2793 -4994.9815
ENERGY: 760 160.6940 670.0272 2844.1837 0.0000 -200601.9894 21602.1615 85.1368 0.0000 0.0000 -175239.7862 0.0000 -175239.7862 -175239.7862 0.0000 16195.6575 -4985.6959 534946.2959 16195.6575 -4985.6959
ENERGY: 780 166.5237 661.0859 2834.7017 0.0000 -200725.9153 21655.8600 84.4414 0.0000 0.0000 -175323.3027 0.0000 -175323.3027 -175323.3027 0.0000 16249.2978 -4943.1597 534946.2959 16249.2978 -4943.1597
ENERGY: 800 162.8393 656.1191 2846.2850 0.0000 -201835.8618 22125.8769 90.0303 0.0000 0.0000 -175954.7112 0.0000 -175954.7112 -175954.7112 0.0000 16527.1535 -4811.1042 534946.2959 16527.1535 -4811.1042
TCL: Setting parameter constraintScaling to 0.0390625
TCL: Minimizing for 100 steps
ETITLE: TS BOND ANGLE DIHED IMPRP ELECT VDW BOUNDARY MISC KINETIC TOTAL TEMP POTENTIAL TOTAL3 TEMPAVG PRESSURE GPRESSURE VOLUME PRESSAVG GPRESSAVG
ENERGY: 800 162.8393 656.1191 2846.2850 0.0000 -201835.8618 22125.8769 45.0152 0.0000 0.0000 -175999.7264 0.0000 -175999.7264 -175999.7264 0.0000 16568.6587 -27163.7781 534946.2959 16568.6587 -27163.7781
ENERGY: 820 164.9981 655.5229 2828.0579 0.0000 -202072.4790 22186.3055 47.8038 0.0000 0.0000 -176189.7907 0.0000 -176189.7907 -176189.7907 0.0000 16555.2511 -4804.7413 534946.2959 16555.2511 -4804.7413
ENERGY: 840 182.6888 682.9013 2835.7996 0.0000 -202452.1737 22338.0060 51.8791 0.0000 0.0000 -176360.8989 0.0000 -176360.8989 -176360.8989 0.0000 16569.7140 -4823.7294 534946.2959 16569.7140 -4823.7294
ENERGY: 860 169.4562 658.3638 2822.9669 0.0000 -202538.0252 22363.0141 50.9114 0.0000 0.0000 -176473.3128 0.0000 -176473.3128 -176473.3128 0.0000 16620.3568 -4786.4605 534946.2959 16620.3568 -4786.4605
ENERGY: 880 167.7651 667.2509 2841.1700 0.0000 -203091.2549 22626.6723 51.5624 0.0000 0.0000 -176736.8343 0.0000 -176736.8343 -176736.8343 0.0000 16808.3560 -4670.6924 534946.2959 16808.3560 -4670.6924
ENERGY: 900 159.4388 658.2766 2824.7347 0.0000 -204344.3690 23230.8476 58.6905 0.0000 0.0000 -177412.3809 0.0000 -177412.3809 -177412.3809 0.0000 17114.2963 -4510.9528 534946.2959 17114.2963 -4510.9528
TCL: Setting parameter constraintScaling to 0.01953125
TCL: Minimizing for 100 steps
ETITLE: TS BOND ANGLE DIHED IMPRP ELECT VDW BOUNDARY MISC KINETIC TOTAL TEMP POTENTIAL TOTAL3 TEMPAVG PRESSURE GPRESSURE VOLUME PRESSAVG GPRESSAVG
ENERGY: 900 159.4388 658.2766 2824.7347 0.0000 -204344.3690 23230.8476 29.3452 0.0000 0.0000 -177441.7261 0.0000 -177441.7261 -177441.7261 0.0000 17138.7595 -27193.0821 534946.2959 17138.7595 -27193.0821
ENERGY: 920 166.4219 659.3120 2816.9825 0.0000 -204581.0694 23266.0641 31.0447 0.0000 0.0000 -177641.2441 0.0000 -177641.2441 -177641.2441 0.0000 17107.6868 -4544.3139 534946.2959 17107.6868 -4544.3139
ENERGY: 940 235.7396 679.1071 2814.7194 0.0000 -205041.4375 23465.2818 32.9648 0.0000 0.0000 -177813.6249 0.0000 -177813.6249 -177813.6249 0.0000 17196.2748 -4514.3990 534946.2959 17196.2748 -4514.3990
ENERGY: 960 164.4388 659.0531 2813.2962 0.0000 -205112.0083 23487.1613 32.5830 0.0000 0.0000 -177955.4759 0.0000 -177955.4759 -177955.4759 0.0000 17223.2993 -4489.5272 534946.2959 17223.2993 -4489.5272
ENERGY: 980 166.2117 665.6353 2819.4355 0.0000 -205528.8810 23703.7509 32.9351 0.0000 0.0000 -178140.9125 0.0000 -178140.9125 -178140.9125 0.0000 17383.4507 -4384.4326 534946.2959 17383.4507 -4384.4326
ENERGY: 1000 181.5083 658.1431 2814.5223 0.0000 -205720.2228 23774.7216 33.7718 0.0000 0.0000 -178257.5556 0.0000 -178257.5556 -178257.5556 0.0000 17394.1842 -4387.7824 534946.2959 17394.1842 -4387.7824
TCL: Setting parameter constraintScaling to 0
TCL: Minimizing for 5000 steps
ETITLE: TS BOND ANGLE DIHED IMPRP ELECT VDW BOUNDARY MISC KINETIC TOTAL TEMP POTENTIAL TOTAL3 TEMPAVG PRESSURE GPRESSURE VOLUME PRESSAVG GPRESSAVG
ENERGY: 1000 181.5083 658.1431 2814.5223 0.0000 -205720.2228 23774.7216 0.0000 0.0000 0.0000 -178291.3274 0.0000 -178291.3274 -178291.3274 0.0000 17421.0608 -27238.9454 534946.2959 17421.0608 -27238.9454
ENERGY: 2000 170.7608 661.3651 2798.6180 0.0000 -214469.9077 27677.9614 0.0000 0.0000 0.0000 -183161.2024 0.0000 -183161.2024 -183161.2024 0.0000 19471.9474 -3287.4230 534946.2959 19471.9474 -3287.4230
ENERGY: 3000 168.8332 667.0139 2793.2710 0.0000 -217525.9412 28886.8394 0.0000 0.0000 0.0000 -185009.9837 0.0000 -185009.9837 -185009.9837 0.0000 20102.2309 -2977.9048 534946.2959 20102.2309 -2977.9048
ENERGY: 4000 173.6983 668.8198 2791.2634 0.0000 -218727.9062 29410.0640 0.0000 0.0000 0.0000 -185684.0607 0.0000 -185684.0607 -185684.0607 0.0000 20388.0268 -2813.2932 534946.2959 20388.0268 -2813.2932
ENERGY: 5000 165.2025 661.2914 2788.1148 0.0000 -219470.3699 29697.3992 0.0000 0.0000 0.0000 -186158.3620 0.0000 -186158.3620 -186158.3620 0.0000 20543.7292 -2738.3477 534946.2959 20543.7292 -2738.3477
ENERGY: 6000 165.0675 660.0578 2787.7950 0.0000 -219901.6623 29876.1867 0.0000 0.0000 0.0000 -186412.5553 0.0000 -186412.5553 -186412.5553 0.0000 20631.7206 -2694.3960 534946.2959 20631.7206 -2694.3960
