Info: SIMULATION PARAMETERS:
Info: TIMESTEP               1
Info: NUMBER OF STEPS        0
Info: STEPS PER CYCLE        10
Info: PERIODIC CELL BASIS 1  72.449 0 0
Info: PERIODIC CELL BASIS 2  0 93.247 0
Info: PERIODIC CELL BASIS 3  0 0 79.185
Info: PERIODIC CELL CENTER   -0.248 -0.156 -0.047
Info: WRAPPING WATERS AROUND PERIODIC BOUNDARIES ON OUTPUT.
Info: WRAPPING ALL CLUSTERS AROUND PERIODIC BOUNDARIES ON OUTPUT.
Info: FIRST LDB TIMESTEP     50
Info: LAST LDB TIMESTEP     -1
Info: HOM BACKGROUND SCALING 1
Info: PME BACKGROUND SCALING 1
Info: MIN ATOMS PER PATCH    40
Info: VELOCITY FILE          ../replicas/rep29/equilibration/eq1.vel
Info: CENTER OF MASS MOVING INITIALLY? NO
Info: DIELECTRIC             1
Info: EXCLUDE                SCALED ONE-FOUR
Info: 1-4 ELECTROSTATICS SCALED BY 0.833333
Info: MODIFIED 1-4 VDW PARAMETERS WILL BE USED
Info: DCD FILENAME           ../replicas/rep29/equilibration/eq2.dcd
Info: DCD FREQUENCY          5000
Info: DCD FIRST STEP         5000
Info: DCD FILE WILL CONTAIN UNIT CELL DATA
Info: XST FILENAME           ../replicas/rep29/equilibration/eq2.xst
Info: XST FREQUENCY          5000
Info: NO VELOCITY DCD OUTPUT
Info: NO FORCE DCD OUTPUT
Info: OUTPUT FILENAME        ../replicas/rep29/equilibration/eq2
Info: RESTART FILENAME       ../replicas/rep29/equilibration/eq2.restart
Info: RESTART FREQUENCY      5000
Info: BINARY RESTART FILES WILL BE USED
Info: SWITCHING ACTIVE
Info: SWITCHING ON           10
Info: SWITCHING OFF          12
Info: PAIRLIST DISTANCE      13.5
Info: PAIRLIST SHRINK RATE   0.01
Info: PAIRLIST GROW RATE     0.01
Info: PAIRLIST TRIGGER       0.3
Info: PAIRLISTS PER CYCLE    2
Info: PAIRLISTS ENABLED
Info: MARGIN                 0.48
Info: HYDROGEN GROUP CUTOFF  2.5
Info: PATCH DIMENSION        16.48
Info: ENERGY OUTPUT STEPS    500
Info: CROSSTERM ENERGY INCLUDED IN DIHEDRAL
Info: TIMING OUTPUT STEPS    5000
Info: PRESSURE OUTPUT STEPS  500
Info: HARMONIC CONSTRAINTS ACTIVE
Info: HARMONIC CONS EXP      2
Info: HARMONIC CONS SCALING  10
Info: LANGEVIN DYNAMICS ACTIVE
Info: LANGEVIN TEMPERATURE   300
Info: LANGEVIN USING BBK INTEGRATOR
Info: LANGEVIN DAMPING COEFFICIENT IS 5 INVERSE PS
Info: LANGEVIN DYNAMICS NOT APPLIED TO HYDROGENS
Info: BERENDSEN PRESSURE COUPLING ACTIVE
Info:     TARGET PRESSURE IS 1 BAR
Info:     COMPRESSIBILITY ESTIMATE IS 4.57e-05 BAR^(-1)
Info:     RELAXATION TIME IS 100 FS
Info:     APPLIED EVERY 2 STEPS
Info:     PRESSURE CONTROL IS GROUP-BASED
Info:       CELL FLUCTUATION IS ISOTROPIC
Info: PARTICLE MESH EWALD (PME) ACTIVE
Info: PME TOLERANCE               1e-06
Info: PME EWALD COEFFICIENT       0.257952
Info: PME INTERPOLATION ORDER     4
Info: PME GRID DIMENSIONS         80 96 80
Info: PME MAXIMUM GRID SPACING    1
Info: FULL ELECTROSTATIC EVALUATION FREQUENCY      2
Info: USING VERLET I (r-RESPA) MTS SCHEME.
Info: C1 SPLITTING OF LONG RANGE ELECTROSTATICS
Info: PLACING ATOMS IN PATCHES BY HYDROGEN GROUPS
Info: RIGID BONDS TO HYDROGEN : WATER
Info:         ERROR TOLERANCE : 1e-05
Info:          MAX ITERATIONS : 100
Info: RIGID WATER USING SETTLE ALGORITHM
Info: RANDOM NUMBER SEED     1503694320
Info: USE HYDROGEN BONDS?    NO
Info: Using AMBER format force field!
Info: AMBER PARM FILE        ../build/complex.top
Info: COORDINATE PDB         ../replicas/rep29/equilibration/eq1.coor
Info: Exclusions in PARM file will be ignored!
Info: SCNB (VDW SCALING)     2
Info: USING ARITHMETIC MEAN TO COMBINE L-J SIGMA PARAMETERS
Info: SUMMARY OF PARAMETERS:
Info: 71 BONDS
Info: 145 ANGLES
Info: 76 DIHEDRAL
Info: 0 IMPROPER
Info: 0 CROSSTERM
Info: 0 VDW
Info: 190 VDW_PAIRS
Info: 0 NBTHOLE_PAIRS
Info: STRUCTURE SUMMARY:
Info: 49394 ATOMS
Info: 49448 BONDS
Info: 8698 ANGLES
Info: 18780 DIHEDRALS
Info: 0 IMPROPERS
Info: 0 CROSSTERMS
Info: 0 EXCLUSIONS
Info: 2336 CONSTRAINTS
Info: 44667 RIGID BONDS
Info: 103515 DEGREES OF FREEDOM
Info: 17225 HYDROGEN GROUPS
Info: 4 ATOMS IN LARGEST HYDROGEN GROUP
Info: 17225 MIGRATION GROUPS
Info: 4 ATOMS IN LARGEST MIGRATION GROUP
Info: TOTAL MASS = 301478 amu
Info: TOTAL CHARGE = 1.00115e-05 e
Info: MASS DENSITY = 0.935846 g/cm^3
Info: ATOM DENSITY = 0.0923345 atoms/A^3
Info: ADDED 70656 IMPLICIT EXCLUSIONS
Info: NONBONDED TABLE R-SQUARED SPACING: 0.0625
Info: NONBONDED TABLE SIZE: 769 POINTS
Info: REMOVING COM VELOCITY 0.0107214 -0.00866424 -0.0194177
TCL: Running for 5000 steps
ETITLE: TS BOND ANGLE DIHED IMPRP ELECT VDW BOUNDARY MISC KINETIC TOTAL TEMP POTENTIAL TOTAL3 TEMPAVG PRESSURE GPRESSURE VOLUME PRESSAVG GPRESSAVG
ENERGY: 0 381.1019 1221.3918 2922.1204 0.0000 -212746.9732 29591.4856 0.0000 0.0000 10028.3247 -168602.5488 97.5024 -178630.8735 -168592.7234 97.5024 -2343.6206 -2444.2665 534946.2959 -2343.6206 -2444.2665
ENERGY: 1000 1229.7417 1947.0903 3119.3725 0.0000 -193547.0988 26370.4432 745.2510 0.0000 24234.5997 -135900.6004 235.6259 -160135.2001 -135879.2179 218.2445 -8.0700 -25.6468 522852.7849 -10.8153 -10.8982
ENERGY: 2000 1490.9993 2201.5226 3136.1137 0.0000 -183986.5247 23309.6728 791.2848 0.0000 27956.3041 -125100.6274 271.8109 -153056.9315 -125060.3423 264.6404 -104.8427 -30.5346 517361.1560 -15.2619 -15.2161
ENERGY: 3000 1538.8017 2157.4661 3161.5821 0.0000 -179140.7880 21576.2610 817.9021 0.0000 29609.5301 -120279.2450 287.8847 -149888.7751 -120238.4935 284.4153 12.2440 28.8442 509788.8757 -26.6363 -27.0098
ENERGY: 4000 1585.1107 2225.5816 3160.0528 0.0000 -177065.5671 21011.5624 827.3266 0.0000 30300.3195 -117955.6135 294.6011 -148255.9330 -117910.8571 293.7739 -86.2879 -17.1898 505778.8493 -10.3214 -9.8620
ENERGY: 5000 1540.7150 2343.4946 3153.3635 0.0000 -175402.9706 20360.7725 796.7011 0.0000 30500.6320 -116707.2920 296.5486 -147207.9240 -116674.2778 297.6287 -63.1744 -22.3001 504568.1021 -6.0550 -6.2696
TCL: Setting parameter constraintScaling to 5.0
TCL: Running for 5000 steps
ETITLE: TS BOND ANGLE DIHED IMPRP ELECT VDW BOUNDARY MISC KINETIC TOTAL TEMP POTENTIAL TOTAL3 TEMPAVG PRESSURE GPRESSURE VOLUME PRESSAVG GPRESSAVG
ENERGY: 5000 1540.7150 2343.4946 3153.3635 0.0000 -175402.9706 20360.7725 398.3505 0.0000 30498.5929 -117107.6817 296.5288 -147606.2746 -117067.3374 296.5288 -13.4370 24.4085 504568.1021 -13.4370 24.4085
ENERGY: 6000 1614.2365 2325.9178 3162.3179 0.0000 -175237.7826 20210.0177 606.4132 0.0000 30860.2483 -116458.6312 300.0451 -147318.8795 -116414.0660 300.6787 -86.8424 -89.6192 503092.9008 1.8141 1.1668
ENERGY: 7000 1517.2709 2298.6044 3180.9424 0.0000 -175264.6366 20038.5464 610.3800 0.0000 30736.1691 -116882.7234 298.8387 -147618.8925 -116829.9361 298.8390 -74.2924 -6.7296 503385.3128 -3.1828 -2.8763
ENERGY: 8000 1616.1017 2306.0932 3178.2586 0.0000 -175449.4296 19972.9266 651.1030 0.0000 30924.3907 -116800.5558 300.6687 -147724.9465 -116759.4440 299.0161 -152.0731 -41.5199 502761.6594 -5.2517 -5.1843
ENERGY: 9000 1586.8078 2317.7952 3149.2696 0.0000 -175525.8063 20114.3949 637.1358 0.0000 30835.3502 -116885.0527 299.8030 -147720.4029 -116835.9470 299.8207 44.3971 6.3949 500502.1461 -3.1394 -3.5645
ENERGY: 10000 1668.5230 2313.0601 3181.5346 0.0000 -175378.8927 20203.6939 664.2106 0.0000 30797.4409 -116550.4296 299.4344 -147347.8705 -116498.6294 300.1396 -1.5259 29.6140 500793.3162 4.4678 4.4471
TCL: Setting parameter constraintScaling to 2.5
TCL: Running for 5000 steps
ETITLE: TS BOND ANGLE DIHED IMPRP ELECT VDW BOUNDARY MISC KINETIC TOTAL TEMP POTENTIAL TOTAL3 TEMPAVG PRESSURE GPRESSURE VOLUME PRESSAVG GPRESSAVG
ENERGY: 10000 1668.5230 2313.0601 3181.5346 0.0000 -175378.8927 20203.6939 332.1053 0.0000 30795.3866 -116884.5892 299.4145 -147679.9758 -116845.2488 299.4145 1.5024 25.8092 500793.3162 1.5024 25.8092
ENERGY: 11000 1636.2228 2355.3524 3195.0381 0.0000 -175411.5473 20135.9852 505.3516 0.0000 30809.5191 -116774.0779 299.5519 -147583.5970 -116726.9010 301.1982 -64.1743 30.6862 501453.7391 2.5142 2.6608
ENERGY: 12000 1605.2247 2395.3486 3201.5757 0.0000 -175992.2067 20311.4127 510.0057 0.0000 31031.0982 -116937.5411 301.7062 -147968.6393 -116888.0732 300.1124 -89.4599 16.8953 500498.3297 -7.7105 -7.3702
ENERGY: 13000 1611.6847 2351.5981 3174.2919 0.0000 -175601.4787 20104.8932 503.5715 0.0000 30421.4532 -117433.9861 295.7788 -147855.4393 -117396.0688 299.7338 -92.9149 12.4340 501583.1470 1.6603 1.4578
ENERGY: 14000 1608.1544 2301.2351 3178.1848 0.0000 -175713.9708 20225.3292 484.0989 0.0000 30974.6540 -116942.3143 301.1574 -147916.9684 -116884.0790 299.3993 -45.2390 7.9551 500944.0915 -8.9804 -9.5362
ENERGY: 15000 1629.6976 2321.8476 3159.2880 0.0000 -175895.3594 20270.5832 538.7900 0.0000 30884.0198 -117091.1332 300.2762 -147975.1530 -117047.5388 299.6085 -87.5718 -24.5297 497210.5578 -24.6324 -24.1565
TCL: Setting parameter constraintScaling to 1.25
TCL: Running for 5000 steps
ETITLE: TS BOND ANGLE DIHED IMPRP ELECT VDW BOUNDARY MISC KINETIC TOTAL TEMP POTENTIAL TOTAL3 TEMPAVG PRESSURE GPRESSURE VOLUME PRESSAVG GPRESSAVG
ENERGY: 15000 1629.6976 2321.8476 3159.2880 0.0000 -175895.3594 20270.5832 269.3950 0.0000 30881.9743 -117362.5737 300.2563 -148244.5480 -117319.8556 300.2563 -61.2100 7.3733 497210.5578 -61.2100 7.3733
ENERGY: 16000 1648.1885 2404.3647 3212.3393 0.0000 -175748.1486 20103.2277 405.7173 0.0000 30920.4384 -117053.8728 300.6303 -147974.3112 -117014.4157 299.4273 49.9911 57.2583 498677.4584 1.0384 1.2470
ENERGY: 17000 1618.4510 2395.3598 3192.2892 0.0000 -175509.7518 20056.9863 397.5439 0.0000 31161.6727 -116687.4487 302.9757 -147849.1215 -116628.8277 300.9979 -8.8182 0.7749 499495.1664 2.8071 3.3538
ENERGY: 18000 1591.3709 2388.0396 3217.4113 0.0000 -175270.2592 19820.3112 407.4228 0.0000 30946.1772 -116899.5261 300.8805 -147845.7034 -116847.8780 300.5532 20.9859 -50.5867 499559.9051 -0.2748 -0.6593
ENERGY: 19000 1582.3921 2364.4175 3182.8687 0.0000 -175636.8443 20161.9270 412.8291 0.0000 30810.5031 -117121.9067 299.5614 -147932.4098 -117077.8350 299.9609 -12.0289 18.9050 499798.0173 6.9285 7.3671
ENERGY: 20000 1594.2032 2386.4408 3185.3529 0.0000 -175579.6737 20031.4715 381.6151 0.0000 30617.7558 -117382.8345 297.6874 -148000.5903 -117339.4410 299.3412 -37.4215 -64.2105 498807.7389 5.8519 5.3469
TCL: Setting parameter constraintScaling to 0.625
TCL: Running for 5000 steps
ETITLE: TS BOND ANGLE DIHED IMPRP ELECT VDW BOUNDARY MISC KINETIC TOTAL TEMP POTENTIAL TOTAL3 TEMPAVG PRESSURE GPRESSURE VOLUME PRESSAVG GPRESSAVG
ENERGY: 20000 1594.2032 2386.4408 3185.3529 0.0000 -175579.6737 20031.4715 190.8075 0.0000 30615.6960 -117575.7018 297.6674 -148191.3979 -117531.3265 297.6674 -26.5114 -51.9304 498807.7389 -26.5114 -51.9304
ENERGY: 21000 1568.0961 2383.7934 3164.2753 0.0000 -175587.5411 19956.3183 306.1071 0.0000 30671.7059 -117537.2449 298.2119 -148208.9509 -117485.8335 299.2687 141.2352 168.0258 497942.3508 1.9618 1.9334
ENERGY: 22000 1639.0219 2407.7352 3228.5213 0.0000 -175813.3291 20084.0414 318.4701 0.0000 30769.8267 -117365.7125 299.1659 -148135.5392 -117319.4285 299.0330 -151.0350 -116.8844 497849.2358 0.7556 0.7757
ENERGY: 23000 1620.6404 2373.8973 3191.7302 0.0000 -176009.2029 20183.8513 312.3298 0.0000 31136.2352 -117190.5188 302.7284 -148326.7540 -117135.4662 300.3909 8.0510 21.1966 497037.4004 3.1832 3.0649
ENERGY: 24000 1644.9270 2347.7955 3192.9524 0.0000 -175930.9536 20163.3112 326.4359 0.0000 30665.4646 -117590.0669 298.1513 -148255.5315 -117545.7265 298.8434 -29.1967 -26.3633 498178.8521 1.9862 2.7294
ENERGY: 25000 1630.2098 2372.8617 3207.7856 0.0000 -175893.2076 20075.2616 305.2762 0.0000 30709.2326 -117592.5800 298.5768 -148301.8126 -117544.3585 299.5418 -249.3750 -116.9509 498686.3477 -2.7926 -2.8190
TCL: Setting parameter constraintScaling to 0.3125
TCL: Running for 5000 steps
ETITLE: TS BOND ANGLE DIHED IMPRP ELECT VDW BOUNDARY MISC KINETIC TOTAL TEMP POTENTIAL TOTAL3 TEMPAVG PRESSURE GPRESSURE VOLUME PRESSAVG GPRESSAVG
ENERGY: 25000 1630.2098 2372.8617 3207.7856 0.0000 -175893.2076 20075.2616 152.6381 0.0000 30707.1906 -117747.2601 298.5569 -148454.4507 -117704.3509 298.5569 -242.3564 -121.0827 498686.3477 -242.3564 -121.0827
ENERGY: 26000 1637.0154 2444.5055 3192.8639 0.0000 -175950.7411 20011.4586 248.6370 0.0000 30941.8137 -117474.4469 300.8381 -148416.2606 -117430.4224 298.8029 31.7171 -8.8958 498747.6189 4.4767 4.3817
ENERGY: 27000 1646.2301 2390.6745 3190.1250 0.0000 -175662.9470 19892.8996 257.9216 0.0000 30778.6314 -117506.4647 299.2515 -148285.0961 -117465.8945 299.6479 -109.8027 -7.1766 498085.3377 -2.7356 -2.5869
ENERGY: 28000 1662.1872 2358.4656 3207.4544 0.0000 -176175.5713 20151.8315 235.8442 0.0000 30891.0111 -117668.7773 300.3442 -148559.7884 -117612.0836 299.3260 -46.6970 -58.0035 497072.3847 1.1907 2.1773
ENERGY: 29000 1651.7218 2349.5557 3206.0889 0.0000 -175989.8621 20160.9302 252.2856 0.0000 30670.9840 -117698.2959 298.2049 -148369.2798 -117650.2226 298.9516 29.9993 58.4885 496121.5374 -5.5809 -5.6767
ENERGY: 30000 1630.5490 2402.6691 3189.8908 0.0000 -175756.5411 20123.5732 263.9381 0.0000 30653.3644 -117492.5564 298.0336 -148145.9208 -117448.9307 298.8805 -3.7034 -22.8197 497299.2368 2.6895 2.7428
TCL: Setting parameter constraintScaling to 0.15625
TCL: Running for 5000 steps
ETITLE: TS BOND ANGLE DIHED IMPRP ELECT VDW BOUNDARY MISC KINETIC TOTAL TEMP POTENTIAL TOTAL3 TEMPAVG PRESSURE GPRESSURE VOLUME PRESSAVG GPRESSAVG
ENERGY: 30000 1630.5490 2402.6691 3189.8908 0.0000 -175756.5411 20123.5732 131.9690 0.0000 30651.3431 -117626.5467 298.0140 -148277.8898 -117587.4429 298.0140 -7.6674 -24.2291 497299.2368 -7.6674 -24.2291
ENERGY: 31000 1578.2848 2432.0079 3196.8723 0.0000 -175581.3849 19905.9975 194.6585 0.0000 30719.2377 -117554.3262 298.6741 -148273.5640 -117497.1491 299.0822 -19.3293 -14.0907 497025.4885 -11.8552 -11.8059
ENERGY: 32000 1645.0646 2403.5435 3186.6685 0.0000 -175701.7755 20000.1770 189.3942 0.0000 30648.2381 -117628.6896 297.9838 -148276.9277 -117579.1227 298.6453 -12.9261 -14.2484 497969.8738 -0.6187 -0.7186
ENERGY: 33000 1646.0115 2424.2836 3224.5096 0.0000 -175413.1264 19718.9864 195.4882 0.0000 30896.8939 -117306.9532 300.4014 -148203.8471 -117256.6968 299.6021 -47.7445 -57.6571 499004.2919 5.7718 5.1537
ENERGY: 34000 1608.5217 2384.0065 3238.3811 0.0000 -175599.7376 20020.2855 194.6402 0.0000 30737.5056 -117416.3970 298.8517 -148153.9026 -117377.0910 300.1179 -5.1363 -12.1195 498502.2890 -1.2714 -1.5756
ENERGY: 35000 1598.6535 2354.1908 3199.1584 0.0000 -175638.3178 20134.5799 206.1577 0.0000 30754.7877 -117390.7897 299.0197 -148145.5775 -117346.6667 300.0734 54.1973 45.7076 499970.4629 8.7272 8.9877
TCL: Setting parameter constraintScaling to 0.078125
TCL: Running for 5000 steps
ETITLE: TS BOND ANGLE DIHED IMPRP ELECT VDW BOUNDARY MISC KINETIC TOTAL TEMP POTENTIAL TOTAL3 TEMPAVG PRESSURE GPRESSURE VOLUME PRESSAVG GPRESSAVG
ENERGY: 35000 1598.6535 2354.1908 3199.1584 0.0000 -175638.3178 20134.5799 103.0788 0.0000 30752.7222 -117495.9341 298.9996 -148248.6563 -117450.2504 298.9996 42.2642 27.0073 499970.4629 42.2642 27.0073
ENERGY: 36000 1610.2332 2364.7565 3224.8699 0.0000 -175976.7995 20121.5653 155.2663 0.0000 30881.2969 -117618.8113 300.2497 -148500.1081 -117579.7313 299.3028 15.4883 8.4720 497790.5877 -11.9985 -11.7846
ENERGY: 37000 1611.6927 2439.0961 3203.0285 0.0000 -175998.2743 20055.1670 156.7159 0.0000 30919.5935 -117612.9805 300.6221 -148532.5740 -117569.6591 298.9342 -56.7259 30.0445 498690.9249 7.0051 7.2572
ENERGY: 38000 1620.3421 2400.7342 3220.0588 0.0000 -175585.5414 20048.6606 154.1681 0.0000 30820.3801 -117321.1974 299.6575 -148141.5775 -117274.4263 300.1643 59.6950 19.3399 498462.7068 3.9157 4.0243
ENERGY: 39000 1602.1363 2381.1234 3198.5062 0.0000 -176356.4878 20373.1783 157.9130 0.0000 30862.9546 -117780.6761 300.0714 -148643.6307 -117734.5413 298.5538 37.4419 71.4878 498167.1855 -0.1913 -0.9179
ENERGY: 40000 1685.9958 2357.1884 3227.3996 0.0000 -175943.9852 20166.7638 160.7999 0.0000 30980.9529 -117364.8848 301.2187 -148345.8377 -117320.0246 300.0248 29.1873 13.3070 497791.5642 -1.7857 -1.6048
TCL: Setting parameter constraintScaling to 0.0390625
TCL: Running for 5000 steps
ETITLE: TS BOND ANGLE DIHED IMPRP ELECT VDW BOUNDARY MISC KINETIC TOTAL TEMP POTENTIAL TOTAL3 TEMPAVG PRESSURE GPRESSURE VOLUME PRESSAVG GPRESSAVG
ENERGY: 40000 1685.9958 2357.1884 3227.3996 0.0000 -175943.9852 20166.7638 80.4000 0.0000 30978.9082 -117447.3295 301.1988 -148426.2377 -117403.2973 301.1988 8.0534 -7.9655 497791.5642 8.0534 -7.9655
ENERGY: 41000 1631.8603 2402.1691 3199.5983 0.0000 -175643.0285 20064.1527 104.7688 0.0000 30821.9763 -117418.5029 299.6730 -148240.4792 -117358.4185 300.3599 105.5734 38.6011 497188.9421 12.9939 12.9940
ENERGY: 42000 1630.9053 2417.6002 3237.9387 0.0000 -176255.7614 20155.8148 118.9866 0.0000 30828.5921 -117865.9238 299.7373 -148694.5159 -117817.7702 299.7361 -112.8527 -74.5589 496549.2489 5.1854 4.6692
ENERGY: 43000 1645.1388 2447.4255 3181.4925 0.0000 -176174.4348 20153.7937 116.6972 0.0000 30695.4688 -117934.4183 298.4430 -148629.8870 -117888.5249 299.8419 25.3601 36.1605 495279.6864 -1.9049 -1.8615
ENERGY: 44000 1763.2745 2365.1486 3240.5303 0.0000 -175767.5958 19896.7961 120.8573 0.0000 30772.1218 -117608.8671 299.1883 -148380.9889 -117560.5988 299.8368 -144.2096 -85.6018 494648.4408 3.6621 3.3658
ENERGY: 45000 1681.0374 2399.6302 3202.5994 0.0000 -175974.0575 20190.7803 123.0807 0.0000 30783.4507 -117593.4789 299.2984 -148376.9296 -117544.0709 300.0276 -71.4536 -49.2985 494855.1510 -3.8780 -3.6285
TCL: Setting parameter constraintScaling to 0.01953125
TCL: Running for 5000 steps
ETITLE: TS BOND ANGLE DIHED IMPRP ELECT VDW BOUNDARY MISC KINETIC TOTAL TEMP POTENTIAL TOTAL3 TEMPAVG PRESSURE GPRESSURE VOLUME PRESSAVG GPRESSAVG
ENERGY: 45000 1681.0374 2399.6302 3202.5994 0.0000 -175974.0575 20190.7803 61.5403 0.0000 30781.4138 -117657.0561 299.2786 -148438.4699 -117616.7497 299.2786 -67.1758 -45.2070 494855.1510 -67.1758 -45.2070
ENERGY: 46000 1628.5218 2421.1276 3208.3281 0.0000 -175915.2253 20112.0187 81.7577 0.0000 31074.9333 -117388.5381 302.1324 -148463.4714 -117349.8515 300.0134 -53.9794 -81.2870 496113.2705 3.4410 3.7017
ENERGY: 47000 1644.5010 2417.7302 3193.8939 0.0000 -175512.1785 19827.7176 85.8422 0.0000 30972.9874 -117369.5062 301.1412 -148342.4936 -117323.7715 301.1588 -81.1505 -23.8504 495815.0051 -5.0101 -5.2031
ENERGY: 48000 1620.0625 2420.3509 3163.6394 0.0000 -175829.5945 19968.3218 87.3031 0.0000 30920.8087 -117649.1082 300.6339 -148569.9169 -117595.9053 300.5612 3.1729 -3.5101 498146.6858 10.3306 10.2943
ENERGY: 49000 1669.9278 2445.3575 3175.6388 0.0000 -175814.1640 20032.7611 92.9745 0.0000 30964.8735 -117432.6308 301.0623 -148397.5043 -117391.0015 300.6059 20.6757 53.9777 496469.6919 -9.0467 -8.8960
ENERGY: 50000 1617.0801 2389.6696 3201.8878 0.0000 -175479.1398 19930.3148 88.6017 0.0000 30766.0466 -117485.5391 299.1292 -148251.5857 -117442.4714 300.3261 -93.5588 -89.7945 496227.7665 -5.2341 -5.4623
TCL: Setting parameter constraintScaling to 0
TCL: Running for 5000 steps
ETITLE: TS BOND ANGLE DIHED IMPRP ELECT VDW BOUNDARY MISC KINETIC TOTAL TEMP POTENTIAL TOTAL3 TEMPAVG PRESSURE GPRESSURE VOLUME PRESSAVG GPRESSAVG
ENERGY: 50000 1617.0801 2389.6696 3201.8878 0.0000 -175479.1398 19930.3148 0.0000 0.0000 30763.9886 -117576.1988 299.1092 -148340.1874 -117529.8342 299.1092 -118.0704 -108.4286 496227.7665 -118.0704 -108.4286
ENERGY: 51000 1698.7091 2417.3349 3216.1275 0.0000 -176087.0453 20132.1269 0.0000 0.0000 30904.7534 -117717.9935 300.4778 -148622.7469 -117669.7664 299.5338 13.2230 -5.8781 497035.5981 2.4474 2.8027
ENERGY: 52000 1595.7916 2347.3506 3210.2667 0.0000 -175621.8216 19939.6799 0.0000 0.0000 30943.2222 -117585.5106 300.8518 -148528.7328 -117534.2998 300.3551 -1.6802 28.8676 497389.5575 6.0094 6.5083
ENERGY: 53000 1635.6604 2351.5272 3240.6760 0.0000 -175769.5058 19843.5180 0.0000 0.0000 30901.0320 -117797.0923 300.4416 -148698.1243 -117746.3660 299.2633 -32.0607 -77.0554 495486.5822 3.9198 3.8111
ENERGY: 54000 1679.1669 2458.6735 3237.2274 0.0000 -176213.3516 20253.6699 0.0000 0.0000 30814.2334 -117770.3805 299.5977 -148584.6138 -117729.5304 299.2704 -24.7570 19.7228 495785.9695 9.9681 9.3073
ENERGY: 55000 1652.1517 2482.2630 3244.3628 0.0000 -176581.7880 20368.4103 0.0000 0.0000 30670.0686 -118164.5316 298.1960 -148834.6002 -118122.6723 298.5625 -62.3610 11.5891 495956.2643 3.7989 4.3767
