Info: SIMULATION PARAMETERS:
Info: TIMESTEP               1
Info: NUMBER OF STEPS        0
Info: STEPS PER CYCLE        10
Info: PERIODIC CELL BASIS 1  72.449 0 0
Info: PERIODIC CELL BASIS 2  0 93.247 0
Info: PERIODIC CELL BASIS 3  0 0 79.185
Info: PERIODIC CELL CENTER   -0.248 -0.156 -0.047
Info: WRAPPING WATERS AROUND PERIODIC BOUNDARIES ON OUTPUT.
Info: WRAPPING ALL CLUSTERS AROUND PERIODIC BOUNDARIES ON OUTPUT.
Info: FIRST LDB TIMESTEP     50
Info: LAST LDB TIMESTEP     -1
Info: HOM BACKGROUND SCALING 1
Info: PME BACKGROUND SCALING 1
Info: MIN ATOMS PER PATCH    40
Info: VELOCITY FILE          ../replicas/rep84/equilibration/eq1.vel
Info: CENTER OF MASS MOVING INITIALLY? NO
Info: DIELECTRIC             1
Info: EXCLUDE                SCALED ONE-FOUR
Info: 1-4 ELECTROSTATICS SCALED BY 0.833333
Info: MODIFIED 1-4 VDW PARAMETERS WILL BE USED
Info: DCD FILENAME           ../replicas/rep84/equilibration/eq2.dcd
Info: DCD FREQUENCY          5000
Info: DCD FIRST STEP         5000
Info: DCD FILE WILL CONTAIN UNIT CELL DATA
Info: XST FILENAME           ../replicas/rep84/equilibration/eq2.xst
Info: XST FREQUENCY          5000
Info: NO VELOCITY DCD OUTPUT
Info: NO FORCE DCD OUTPUT
Info: OUTPUT FILENAME        ../replicas/rep84/equilibration/eq2
Info: RESTART FILENAME       ../replicas/rep84/equilibration/eq2.restart
Info: RESTART FREQUENCY      5000
Info: BINARY RESTART FILES WILL BE USED
Info: SWITCHING ACTIVE
Info: SWITCHING ON           10
Info: SWITCHING OFF          12
Info: PAIRLIST DISTANCE      13.5
Info: PAIRLIST SHRINK RATE   0.01
Info: PAIRLIST GROW RATE     0.01
Info: PAIRLIST TRIGGER       0.3
Info: PAIRLISTS PER CYCLE    2
Info: PAIRLISTS ENABLED
Info: MARGIN                 0.48
Info: HYDROGEN GROUP CUTOFF  2.5
Info: PATCH DIMENSION        16.48
Info: ENERGY OUTPUT STEPS    500
Info: CROSSTERM ENERGY INCLUDED IN DIHEDRAL
Info: TIMING OUTPUT STEPS    5000
Info: PRESSURE OUTPUT STEPS  500
Info: HARMONIC CONSTRAINTS ACTIVE
Info: HARMONIC CONS EXP      2
Info: HARMONIC CONS SCALING  10
Info: LANGEVIN DYNAMICS ACTIVE
Info: LANGEVIN TEMPERATURE   300
Info: LANGEVIN USING BBK INTEGRATOR
Info: LANGEVIN DAMPING COEFFICIENT IS 5 INVERSE PS
Info: LANGEVIN DYNAMICS NOT APPLIED TO HYDROGENS
Info: BERENDSEN PRESSURE COUPLING ACTIVE
Info:     TARGET PRESSURE IS 1 BAR
Info:     COMPRESSIBILITY ESTIMATE IS 4.57e-05 BAR^(-1)
Info:     RELAXATION TIME IS 100 FS
Info:     APPLIED EVERY 2 STEPS
Info:     PRESSURE CONTROL IS GROUP-BASED
Info:       CELL FLUCTUATION IS ISOTROPIC
Info: PARTICLE MESH EWALD (PME) ACTIVE
Info: PME TOLERANCE               1e-06
Info: PME EWALD COEFFICIENT       0.257952
Info: PME INTERPOLATION ORDER     4
Info: PME GRID DIMENSIONS         80 96 80
Info: PME MAXIMUM GRID SPACING    1
Info: FULL ELECTROSTATIC EVALUATION FREQUENCY      2
Info: USING VERLET I (r-RESPA) MTS SCHEME.
Info: C1 SPLITTING OF LONG RANGE ELECTROSTATICS
Info: PLACING ATOMS IN PATCHES BY HYDROGEN GROUPS
Info: RIGID BONDS TO HYDROGEN : WATER
Info:         ERROR TOLERANCE : 1e-05
Info:          MAX ITERATIONS : 100
Info: RIGID WATER USING SETTLE ALGORITHM
Info: RANDOM NUMBER SEED     1503708679
Info: USE HYDROGEN BONDS?    NO
Info: Using AMBER format force field!
Info: AMBER PARM FILE        ../build/complex.top
Info: COORDINATE PDB         ../replicas/rep84/equilibration/eq1.coor
Info: Exclusions in PARM file will be ignored!
Info: SCNB (VDW SCALING)     2
Info: USING ARITHMETIC MEAN TO COMBINE L-J SIGMA PARAMETERS
Info: SUMMARY OF PARAMETERS:
Info: 71 BONDS
Info: 145 ANGLES
Info: 76 DIHEDRAL
Info: 0 IMPROPER
Info: 0 CROSSTERM
Info: 0 VDW
Info: 190 VDW_PAIRS
Info: 0 NBTHOLE_PAIRS
Info: STRUCTURE SUMMARY:
Info: 49394 ATOMS
Info: 49448 BONDS
Info: 8698 ANGLES
Info: 18780 DIHEDRALS
Info: 0 IMPROPERS
Info: 0 CROSSTERMS
Info: 0 EXCLUSIONS
Info: 2336 CONSTRAINTS
Info: 44667 RIGID BONDS
Info: 103515 DEGREES OF FREEDOM
Info: 17225 HYDROGEN GROUPS
Info: 4 ATOMS IN LARGEST HYDROGEN GROUP
Info: 17225 MIGRATION GROUPS
Info: 4 ATOMS IN LARGEST MIGRATION GROUP
Info: TOTAL MASS = 301478 amu
Info: TOTAL CHARGE = 1.00115e-05 e
Info: MASS DENSITY = 0.935846 g/cm^3
Info: ATOM DENSITY = 0.0923345 atoms/A^3
Info: ADDED 70656 IMPLICIT EXCLUSIONS
Info: NONBONDED TABLE R-SQUARED SPACING: 0.0625
Info: NONBONDED TABLE SIZE: 769 POINTS
Info: REMOVING COM VELOCITY -0.0307467 0.0218436 0.00966838
TCL: Running for 5000 steps
ETITLE: TS BOND ANGLE DIHED IMPRP ELECT VDW BOUNDARY MISC KINETIC TOTAL TEMP POTENTIAL TOTAL3 TEMPAVG PRESSURE GPRESSURE VOLUME PRESSAVG GPRESSAVG
ENERGY: 0 375.9068 1228.1574 2908.6740 0.0000 -212961.0221 29691.4648 0.0000 0.0000 10054.5448 -168702.2741 97.7574 -178756.8190 -168692.7038 97.7574 -2306.2524 -2403.5466 534946.2959 -2306.2524 -2403.5466
ENERGY: 1000 1272.1787 1988.0134 3137.7826 0.0000 -193608.8798 26452.8189 751.7338 0.0000 24151.3261 -135855.0262 234.8162 -160006.3523 -135832.6320 219.5833 36.7750 22.9640 522896.5773 -13.6457 -13.9244
ENERGY: 2000 1433.6184 2151.3184 3146.0988 0.0000 -184249.1830 23510.8446 783.8335 0.0000 28110.2086 -125113.2608 273.3073 -153223.4694 -125072.2982 265.7922 -109.9289 -18.5184 516546.4621 -18.2358 -18.4425
ENERGY: 3000 1505.7485 2203.0963 3131.8108 0.0000 -179242.9794 21641.2122 790.5631 0.0000 29529.1857 -120441.3628 287.1036 -149970.5485 -120398.8491 284.9329 20.8177 -17.6231 510852.4770 -17.7234 -18.1193
ENERGY: 4000 1554.5669 2263.4567 3137.5625 0.0000 -176901.1244 20691.9430 832.3162 0.0000 30371.8114 -118049.4677 295.2962 -148421.2792 -117999.8779 292.8469 -92.7949 -41.7574 506693.0094 -14.1091 -13.7816
ENERGY: 5000 1571.6334 2238.3064 3139.5276 0.0000 -176368.5708 20572.4632 806.0431 0.0000 30793.3398 -117247.2573 299.3946 -148040.5971 -117197.3020 296.8584 -13.3793 31.6737 503716.3853 -4.1761 -4.0174
TCL: Setting parameter constraintScaling to 5.0
TCL: Running for 5000 steps
ETITLE: TS BOND ANGLE DIHED IMPRP ELECT VDW BOUNDARY MISC KINETIC TOTAL TEMP POTENTIAL TOTAL3 TEMPAVG PRESSURE GPRESSURE VOLUME PRESSAVG GPRESSAVG
ENERGY: 5000 1571.6334 2238.3064 3139.5276 0.0000 -176368.5708 20572.4632 403.0215 0.0000 30791.2950 -117652.3236 299.3747 -148443.6186 -117610.0665 299.3747 -23.8341 21.2931 503716.3853 -23.8341 21.2931
ENERGY: 6000 1612.8264 2299.7133 3174.7306 0.0000 -175190.7771 19952.9180 636.2978 0.0000 30678.9456 -116835.3452 298.2823 -147514.2908 -116794.3286 298.9997 -29.8097 7.8355 505129.8370 -2.4138 -2.1631
ENERGY: 7000 1612.7937 2314.7056 3169.0404 0.0000 -175903.3665 20317.1704 657.1221 0.0000 30867.2218 -116965.3125 300.1129 -147832.5343 -116914.0277 299.3452 -68.4853 -28.7199 503779.7773 -2.4572 -2.7953
ENERGY: 8000 1610.3456 2336.0354 3146.8993 0.0000 -175734.1398 20260.0655 637.4333 0.0000 30962.9088 -116780.4520 301.0432 -147743.3608 -116728.1404 299.7287 17.7273 -10.2370 503169.4572 6.6689 6.7326
ENERGY: 9000 1592.6851 2351.4047 3223.3130 0.0000 -175340.2191 19886.0010 661.6039 0.0000 31062.4180 -116562.7936 302.0107 -147625.2116 -116518.8931 300.1035 -53.3391 -13.5453 502265.9605 7.6442 7.6893
ENERGY: 10000 1637.9610 2343.0660 3143.2378 0.0000 -175626.5812 20188.3027 662.8476 0.0000 30823.0077 -116828.1584 299.6830 -147651.1660 -116796.4452 300.2615 -63.7663 -23.8884 498675.1524 -14.8744 -14.6732
TCL: Setting parameter constraintScaling to 2.5
TCL: Running for 5000 steps
ETITLE: TS BOND ANGLE DIHED IMPRP ELECT VDW BOUNDARY MISC KINETIC TOTAL TEMP POTENTIAL TOTAL3 TEMPAVG PRESSURE GPRESSURE VOLUME PRESSAVG GPRESSAVG
ENERGY: 10000 1637.9610 2343.0660 3143.2378 0.0000 -175626.5812 20188.3027 331.4238 0.0000 30820.9800 -117161.6098 299.6633 -147982.5898 -117117.3336 299.6633 -40.5973 2.4999 498675.1524 -40.5973 2.4999
ENERGY: 11000 1608.6943 2375.9904 3166.8484 0.0000 -175495.9569 19951.6438 491.8356 0.0000 30776.1560 -117124.7884 299.2275 -147900.9444 -117077.6281 299.6257 70.7573 53.2028 499677.3124 9.9649 10.4797
ENERGY: 12000 1600.8171 2355.9121 3141.7568 0.0000 -175389.0879 20132.7264 508.6612 0.0000 30788.8003 -116860.4139 299.3504 -147649.2142 -116808.6414 300.1496 43.6733 -4.3865 500044.4872 15.1926 15.1356
ENERGY: 13000 1661.3906 2302.7305 3217.0419 0.0000 -175405.9863 20002.2795 506.9178 0.0000 30807.8123 -116907.8137 299.5353 -147715.6260 -116863.9853 299.4331 -120.0659 -106.3195 499413.0208 -13.1090 -13.2110
ENERGY: 14000 1586.1974 2366.4972 3154.3702 0.0000 -175506.9475 19809.9454 513.4097 0.0000 30742.9835 -117333.5441 298.9050 -148076.5276 -117284.3934 299.0793 -58.0472 -17.7988 498984.3884 1.2454 0.8442
ENERGY: 15000 1637.0238 2282.6027 3158.7257 0.0000 -175276.4997 19670.2725 520.2427 0.0000 30854.6247 -117153.0075 299.9904 -148007.6323 -117121.0442 299.6310 21.4250 30.3354 498440.6497 -0.6577 -1.0761
TCL: Setting parameter constraintScaling to 1.25
TCL: Running for 5000 steps
ETITLE: TS BOND ANGLE DIHED IMPRP ELECT VDW BOUNDARY MISC KINETIC TOTAL TEMP POTENTIAL TOTAL3 TEMPAVG PRESSURE GPRESSURE VOLUME PRESSAVG GPRESSAVG
ENERGY: 15000 1637.0238 2282.6027 3158.7257 0.0000 -175276.4997 19670.2725 260.1214 0.0000 30852.5706 -117415.1830 299.9704 -148267.7536 -117375.2254 299.9704 -87.1498 -87.2966 498440.6497 -87.1498 -87.2966
ENERGY: 16000 1624.6253 2323.2198 3201.1855 0.0000 -175847.7176 20214.9498 402.4890 0.0000 30646.4824 -117434.7658 297.9667 -148081.2482 -117392.7594 299.3561 -61.8583 -38.9339 497607.9870 -4.6913 -4.5311
ENERGY: 17000 1644.7234 2437.5587 3214.5621 0.0000 -175616.2842 19937.3038 419.8242 0.0000 30847.2437 -117115.0682 299.9186 -147962.3120 -117067.5059 300.8363 -57.2149 -94.5373 497669.5247 -0.1373 -0.4773
ENERGY: 18000 1670.4480 2405.1432 3172.3413 0.0000 -175556.5216 20325.0041 382.0300 0.0000 30811.0575 -116790.4975 299.5668 -147601.5550 -116750.5530 300.9859 -57.6855 1.4016 498257.3183 15.1204 15.0492
ENERGY: 19000 1610.0406 2357.7137 3169.7116 0.0000 -175839.9021 20144.6681 401.7310 0.0000 31118.5982 -117037.4388 302.5569 -148156.0370 -116981.6355 301.3529 -75.4360 37.4613 499586.8645 -7.5084 -6.9121
ENERGY: 20000 1642.1432 2387.4099 3187.6405 0.0000 -175041.1674 19839.4895 404.6870 0.0000 30681.9813 -116897.8161 298.3118 -147579.7974 -116848.3613 301.3310 49.8021 8.9343 501300.7644 14.1118 13.8711
TCL: Setting parameter constraintScaling to 0.625
TCL: Running for 5000 steps
ETITLE: TS BOND ANGLE DIHED IMPRP ELECT VDW BOUNDARY MISC KINETIC TOTAL TEMP POTENTIAL TOTAL3 TEMPAVG PRESSURE GPRESSURE VOLUME PRESSAVG GPRESSAVG
ENERGY: 20000 1642.1432 2387.4099 3187.6405 0.0000 -175041.1674 19839.4895 202.3435 0.0000 30679.9676 -117102.1732 298.2923 -147782.1408 -117061.2269 298.2923 -10.9340 -48.0654 501300.7644 -10.9340 -48.0654
ENERGY: 21000 1581.2926 2377.0740 3191.0906 0.0000 -175733.3514 19972.8987 301.7769 0.0000 31007.8824 -117301.3362 301.4805 -148309.2186 -117237.3942 299.7201 -151.0158 -13.0938 498984.1834 -12.2982 -12.2325
ENERGY: 22000 1665.4265 2420.7237 3176.0905 0.0000 -175748.3357 20134.5517 300.4110 0.0000 31071.2539 -116979.8783 302.0966 -148051.1322 -116929.7514 300.9942 -27.6820 -39.1438 497888.0245 -11.6250 -11.3306
ENERGY: 23000 1651.3087 2284.5079 3190.8364 0.0000 -175863.7137 19957.4310 303.4745 0.0000 30713.5434 -117762.6119 298.6187 -148476.1552 -117705.4376 298.9789 -81.8110 -64.7203 498099.2806 8.4244 8.9429
ENERGY: 24000 1675.4235 2403.0334 3205.1478 0.0000 -175925.8816 20045.2915 314.0705 0.0000 30799.4578 -117483.4572 299.4540 -148282.9150 -117441.3659 299.3760 -96.4993 -38.9730 498788.1077 -3.2669 -2.9709
ENERGY: 25000 1637.4092 2393.9104 3157.1647 0.0000 -175566.5086 19997.2408 314.1490 0.0000 30710.9041 -117355.7304 298.5931 -148066.6345 -117307.9451 299.7778 -10.8770 46.3919 498371.3072 1.1679 0.4835
TCL: Setting parameter constraintScaling to 0.3125
TCL: Running for 5000 steps
ETITLE: TS BOND ANGLE DIHED IMPRP ELECT VDW BOUNDARY MISC KINETIC TOTAL TEMP POTENTIAL TOTAL3 TEMPAVG PRESSURE GPRESSURE VOLUME PRESSAVG GPRESSAVG
ENERGY: 25000 1637.4092 2393.9104 3157.1647 0.0000 -175566.5086 19997.2408 157.0745 0.0000 30708.8566 -117514.8524 298.5731 -148223.7090 -117472.0548 298.5731 -87.6202 -30.4163 498371.3072 -87.6202 -30.4163
ENERGY: 26000 1751.9721 2433.9598 3205.0332 0.0000 -175702.8853 20169.0767 243.3537 0.0000 31032.2635 -116867.2263 301.7175 -147899.4898 -116831.8141 300.8708 -108.9870 8.9764 499123.3776 5.5585 5.7809
ENERGY: 27000 1670.6587 2426.1979 3235.4257 0.0000 -175416.5889 19936.8503 259.5657 0.0000 30919.9342 -116967.9564 300.6254 -147887.8906 -116932.6369 300.6422 -68.3707 -37.8391 498530.8241 -4.6807 -4.1612
ENERGY: 28000 1603.4308 2437.6694 3225.7884 0.0000 -175711.0689 20049.1179 259.4703 0.0000 31014.9480 -117120.6440 301.5492 -148135.5920 -117077.7967 300.2604 62.4830 32.1900 499000.3854 6.9235 6.8717
ENERGY: 29000 1602.2148 2402.9552 3240.3522 0.0000 -175698.4914 19983.4178 265.3071 0.0000 30825.3696 -117378.8749 299.7060 -148204.2444 -117321.3938 300.2344 20.2880 22.8502 497533.8775 -4.8603 -4.5486
ENERGY: 30000 1656.2827 2369.5006 3173.8607 0.0000 -175770.0893 20100.9457 257.8304 0.0000 30668.9961 -117542.6731 298.1856 -148211.6692 -117490.2636 300.0854 -21.7165 -14.6994 497446.5405 -5.9190 -5.5413
TCL: Setting parameter constraintScaling to 0.15625
TCL: Running for 5000 steps
ETITLE: TS BOND ANGLE DIHED IMPRP ELECT VDW BOUNDARY MISC KINETIC TOTAL TEMP POTENTIAL TOTAL3 TEMPAVG PRESSURE GPRESSURE VOLUME PRESSAVG GPRESSAVG
ENERGY: 30000 1656.2827 2369.5006 3173.8607 0.0000 -175770.0893 20100.9457 128.9152 0.0000 30666.9360 -117673.6484 298.1656 -148340.5844 -117628.9800 298.1656 -48.7350 -42.5667 497446.5405 -48.7350 -42.5667
ENERGY: 31000 1691.7272 2374.5285 3198.9048 0.0000 -175976.0830 19863.0953 198.9511 0.0000 30822.8347 -117826.0414 299.6813 -148648.8761 -117777.6255 299.3494 -207.8081 -128.7906 496850.6896 -6.5132 -7.1606
ENERGY: 32000 1639.2424 2368.0148 3227.1893 0.0000 -175919.4665 20126.1421 199.8484 0.0000 30869.0835 -117489.9460 300.1310 -148359.0295 -117446.4143 299.5247 61.3349 0.4386 498409.1877 14.6715 14.4546
ENERGY: 33000 1589.9049 2321.9823 3167.4246 0.0000 -176093.4046 20210.8889 185.0212 0.0000 30975.3105 -117642.8723 301.1638 -148618.1827 -117596.6252 299.2670 160.4492 92.1299 497501.6474 0.2108 -0.3774
ENERGY: 34000 1627.9649 2330.2589 3234.0890 0.0000 -175528.8158 19892.5939 200.0589 0.0000 30699.6450 -117544.2051 298.4836 -148243.8501 -117502.1719 298.6750 32.3627 -62.4952 497382.2939 8.5421 8.1335
ENERGY: 35000 1683.5262 2365.3714 3199.9120 0.0000 -175674.2459 19845.6203 211.3003 0.0000 30857.9215 -117510.5941 300.0225 -148368.5156 -117465.3509 299.9330 -31.7535 -10.4380 497346.0536 2.8762 2.7551
TCL: Setting parameter constraintScaling to 0.078125
TCL: Running for 5000 steps
ETITLE: TS BOND ANGLE DIHED IMPRP ELECT VDW BOUNDARY MISC KINETIC TOTAL TEMP POTENTIAL TOTAL3 TEMPAVG PRESSURE GPRESSURE VOLUME PRESSAVG GPRESSAVG
ENERGY: 35000 1683.5262 2365.3714 3199.9120 0.0000 -175674.2459 19845.6203 105.6502 0.0000 30855.8855 -117618.2802 300.0027 -148474.1657 -117577.6836 300.0027 -56.6710 -38.9916 497346.0536 -56.6710 -38.9916
ENERGY: 36000 1624.0708 2521.4898 3194.2067 0.0000 -175532.4289 20022.1132 150.3858 0.0000 30610.9140 -117409.2484 297.6209 -148020.1624 -117364.5681 299.6971 -14.0429 93.1690 497485.9431 0.2672 0.2387
ENERGY: 37000 1589.3557 2464.7464 3219.1844 0.0000 -175995.2990 20099.2416 161.9378 0.0000 30777.1280 -117683.7050 299.2369 -148460.8331 -117645.2601 299.6324 -10.0324 10.7392 496438.6372 -7.5971 -7.2308
ENERGY: 38000 1618.4126 2456.0546 3245.2578 0.0000 -176324.4157 20252.4906 165.8542 0.0000 30874.5209 -117711.8250 300.1839 -148586.3459 -117673.1401 299.2403 31.2098 60.0212 496719.5013 -4.2740 -4.4793
ENERGY: 39000 1654.2477 2343.0411 3180.1822 0.0000 -176168.9673 20129.7698 170.4595 0.0000 30583.0013 -118108.2656 297.3495 -148691.2669 -118060.6820 297.9605 -5.1174 19.8086 496598.3485 13.5727 13.6310
ENERGY: 40000 1648.7898 2393.6632 3197.7234 0.0000 -175933.6932 20041.6829 161.1798 0.0000 30830.1563 -117660.4978 299.7525 -148490.6541 -117618.7716 298.1633 -0.6516 -2.8634 497584.7840 8.6301 8.4340
TCL: Setting parameter constraintScaling to 0.0390625
TCL: Running for 5000 steps
ETITLE: TS BOND ANGLE DIHED IMPRP ELECT VDW BOUNDARY MISC KINETIC TOTAL TEMP POTENTIAL TOTAL3 TEMPAVG PRESSURE GPRESSURE VOLUME PRESSAVG GPRESSAVG
ENERGY: 40000 1648.7898 2393.6632 3197.7234 0.0000 -175933.6932 20041.6829 80.5899 0.0000 30828.1315 -117743.1125 299.7328 -148571.2440 -117703.2537 299.7328 -4.0223 -9.8645 497584.7840 -4.0223 -9.8645
ENERGY: 41000 1705.2671 2395.1673 3220.7641 0.0000 -176003.2189 20052.6609 105.2924 0.0000 30776.3945 -117747.6726 299.2298 -148524.0671 -117705.8212 299.7669 28.5478 28.3133 496611.8882 -4.4729 -4.5410
ENERGY: 42000 1630.4749 2408.7722 3191.5389 0.0000 -176232.4830 20177.8263 120.4821 0.0000 30888.4381 -117814.9504 300.3192 -148703.3885 -117766.0667 300.1848 -16.3382 51.8061 496617.8950 -11.8303 -11.7227
ENERGY: 43000 1632.5570 2426.4633 3208.2069 0.0000 -176100.9219 20145.2134 116.2525 0.0000 30752.1185 -117820.1103 298.9938 -148572.2288 -117779.7576 298.4544 13.4685 6.7650 497429.0415 3.8589 3.9632
ENERGY: 44000 1609.2467 2396.2158 3201.3654 0.0000 -176184.5764 20125.6472 114.4214 0.0000 31109.4811 -117628.1988 302.4683 -148737.6799 -117588.6983 298.8898 -11.9132 -50.5070 498232.0291 6.8576 6.7902
ENERGY: 45000 1611.1082 2430.5597 3215.2687 0.0000 -175981.3696 20144.1160 126.5806 0.0000 30897.8986 -117555.8378 300.4111 -148453.7364 -117501.3479 300.2490 -124.5972 -57.4003 496551.9987 -5.7435 -5.9653
TCL: Setting parameter constraintScaling to 0.01953125
TCL: Running for 5000 steps
ETITLE: TS BOND ANGLE DIHED IMPRP ELECT VDW BOUNDARY MISC KINETIC TOTAL TEMP POTENTIAL TOTAL3 TEMPAVG PRESSURE GPRESSURE VOLUME PRESSAVG GPRESSAVG
ENERGY: 45000 1611.1082 2430.5597 3215.2687 0.0000 -175981.3696 20144.1160 63.2903 0.0000 30895.8495 -117621.1772 300.3912 -148517.0267 -117575.4540 300.3912 -123.2465 -50.7265 496551.9987 -123.2465 -50.7265
ENERGY: 46000 1634.6339 2442.3185 3194.2888 0.0000 -175736.0404 20108.2472 77.4959 0.0000 30869.9391 -117409.1170 300.1393 -148279.0561 -117353.1593 301.3536 157.9473 183.3195 496675.1834 -1.0212 -1.1558
ENERGY: 47000 1598.0697 2411.2920 3200.4951 0.0000 -175779.7424 20116.0219 90.7282 0.0000 30713.5376 -117649.5979 298.6187 -148363.1355 -117605.2888 299.1454 -17.9809 26.5967 497510.5498 3.5032 3.2399
ENERGY: 48000 1658.4382 2378.3510 3212.0294 0.0000 -175748.3900 20042.9026 89.2282 0.0000 30832.6719 -117534.7688 299.7770 -148367.4406 -117496.4747 300.8145 79.6202 27.8811 496793.1021 -10.7431 -10.7525
ENERGY: 49000 1638.4850 2430.9978 3220.4508 0.0000 -175948.6627 20069.6545 94.6989 0.0000 30773.6163 -117720.7594 299.2028 -148494.3757 -117681.1785 299.7423 -66.5478 -17.5892 496104.6987 -4.4286 -4.5472
ENERGY: 50000 1687.6321 2370.7511 3214.9760 0.0000 -176505.7650 20274.6634 94.6335 0.0000 30990.4298 -117872.6790 301.3108 -148863.1088 -117834.4897 300.3994 -87.4698 15.9330 495971.0419 11.7470 11.9975
TCL: Setting parameter constraintScaling to 0
TCL: Running for 5000 steps
ETITLE: TS BOND ANGLE DIHED IMPRP ELECT VDW BOUNDARY MISC KINETIC TOTAL TEMP POTENTIAL TOTAL3 TEMPAVG PRESSURE GPRESSURE VOLUME PRESSAVG GPRESSAVG
ENERGY: 50000 1687.6321 2370.7511 3214.9760 0.0000 -176505.7650 20274.6634 0.0000 0.0000 30988.4053 -117969.3371 301.2911 -148957.7424 -117928.2811 301.2911 -96.5523 0.1679 495971.0419 -96.5523 0.1679
ENERGY: 51000 1683.0851 2404.4193 3212.3391 0.0000 -175868.2951 19983.1804 0.0000 0.0000 30892.3792 -117692.8920 300.3575 -148585.2711 -117647.6884 299.2166 -45.1925 -16.1374 498059.8219 13.8872 14.5786
ENERGY: 52000 1678.9763 2396.9662 3202.0181 0.0000 -175915.6047 20007.6544 0.0000 0.0000 30736.6933 -117893.2964 298.8438 -148629.9897 -117854.5341 299.2334 -17.2228 38.9384 496615.7798 2.8069 3.3579
ENERGY: 53000 1638.3776 2366.1194 3240.9088 0.0000 -175770.3121 19840.4262 0.0000 0.0000 30985.0489 -117699.4312 301.2585 -148684.4801 -117656.7729 300.0489 -120.7017 -73.3597 496670.2659 -1.6093 -1.1597
ENERGY: 54000 1671.3513 2427.3320 3177.7935 0.0000 -176051.6085 20199.4857 0.0000 0.0000 30685.2217 -117890.4243 298.3434 -148575.6460 -117844.4594 299.8494 -14.2455 9.0712 496696.7183 8.1182 8.5092
ENERGY: 55000 1676.0702 2369.4112 3176.2910 0.0000 -175714.9854 19982.7248 0.0000 0.0000 30839.0601 -117671.4280 299.8391 -148510.4881 -117631.3063 300.3966 -35.9066 -9.6154 495731.4653 5.0370 5.3173
