Info: SIMULATION PARAMETERS:
Info: TIMESTEP               1
Info: NUMBER OF STEPS        0
Info: STEPS PER CYCLE        10
Info: PERIODIC CELL BASIS 1  72.449 0 0
Info: PERIODIC CELL BASIS 2  0 93.247 0
Info: PERIODIC CELL BASIS 3  0 0 79.185
Info: PERIODIC CELL CENTER   -0.248 -0.156 -0.047
Info: WRAPPING WATERS AROUND PERIODIC BOUNDARIES ON OUTPUT.
Info: WRAPPING ALL CLUSTERS AROUND PERIODIC BOUNDARIES ON OUTPUT.
Info: FIRST LDB TIMESTEP     50
Info: LAST LDB TIMESTEP     -1
Info: HOM BACKGROUND SCALING 1
Info: PME BACKGROUND SCALING 1
Info: MIN ATOMS PER PATCH    40
Info: VELOCITY FILE          ../replicas/rep20/equilibration/eq1.vel
Info: CENTER OF MASS MOVING INITIALLY? NO
Info: DIELECTRIC             1
Info: EXCLUDE                SCALED ONE-FOUR
Info: 1-4 ELECTROSTATICS SCALED BY 0.833333
Info: MODIFIED 1-4 VDW PARAMETERS WILL BE USED
Info: DCD FILENAME           ../replicas/rep20/equilibration/eq2.dcd
Info: DCD FREQUENCY          5000
Info: DCD FIRST STEP         5000
Info: DCD FILE WILL CONTAIN UNIT CELL DATA
Info: XST FILENAME           ../replicas/rep20/equilibration/eq2.xst
Info: XST FREQUENCY          5000
Info: NO VELOCITY DCD OUTPUT
Info: NO FORCE DCD OUTPUT
Info: OUTPUT FILENAME        ../replicas/rep20/equilibration/eq2
Info: RESTART FILENAME       ../replicas/rep20/equilibration/eq2.restart
Info: RESTART FREQUENCY      5000
Info: BINARY RESTART FILES WILL BE USED
Info: SWITCHING ACTIVE
Info: SWITCHING ON           10
Info: SWITCHING OFF          12
Info: PAIRLIST DISTANCE      13.5
Info: PAIRLIST SHRINK RATE   0.01
Info: PAIRLIST GROW RATE     0.01
Info: PAIRLIST TRIGGER       0.3
Info: PAIRLISTS PER CYCLE    2
Info: PAIRLISTS ENABLED
Info: MARGIN                 0.48
Info: HYDROGEN GROUP CUTOFF  2.5
Info: PATCH DIMENSION        16.48
Info: ENERGY OUTPUT STEPS    500
Info: CROSSTERM ENERGY INCLUDED IN DIHEDRAL
Info: TIMING OUTPUT STEPS    5000
Info: PRESSURE OUTPUT STEPS  500
Info: HARMONIC CONSTRAINTS ACTIVE
Info: HARMONIC CONS EXP      2
Info: HARMONIC CONS SCALING  10
Info: LANGEVIN DYNAMICS ACTIVE
Info: LANGEVIN TEMPERATURE   300
Info: LANGEVIN USING BBK INTEGRATOR
Info: LANGEVIN DAMPING COEFFICIENT IS 5 INVERSE PS
Info: LANGEVIN DYNAMICS NOT APPLIED TO HYDROGENS
Info: BERENDSEN PRESSURE COUPLING ACTIVE
Info:     TARGET PRESSURE IS 1 BAR
Info:     COMPRESSIBILITY ESTIMATE IS 4.57e-05 BAR^(-1)
Info:     RELAXATION TIME IS 100 FS
Info:     APPLIED EVERY 2 STEPS
Info:     PRESSURE CONTROL IS GROUP-BASED
Info:       CELL FLUCTUATION IS ISOTROPIC
Info: PARTICLE MESH EWALD (PME) ACTIVE
Info: PME TOLERANCE               1e-06
Info: PME EWALD COEFFICIENT       0.257952
Info: PME INTERPOLATION ORDER     4
Info: PME GRID DIMENSIONS         80 96 80
Info: PME MAXIMUM GRID SPACING    1
Info: FULL ELECTROSTATIC EVALUATION FREQUENCY      2
Info: USING VERLET I (r-RESPA) MTS SCHEME.
Info: C1 SPLITTING OF LONG RANGE ELECTROSTATICS
Info: PLACING ATOMS IN PATCHES BY HYDROGEN GROUPS
Info: RIGID BONDS TO HYDROGEN : WATER
Info:         ERROR TOLERANCE : 1e-05
Info:          MAX ITERATIONS : 100
Info: RIGID WATER USING SETTLE ALGORITHM
Info: RANDOM NUMBER SEED     1503715653
Info: USE HYDROGEN BONDS?    NO
Info: Using AMBER format force field!
Info: AMBER PARM FILE        ../build/complex.top
Info: COORDINATE PDB         ../replicas/rep20/equilibration/eq1.coor
Info: Exclusions in PARM file will be ignored!
Info: SCNB (VDW SCALING)     2
Info: USING ARITHMETIC MEAN TO COMBINE L-J SIGMA PARAMETERS
Info: SUMMARY OF PARAMETERS:
Info: 71 BONDS
Info: 145 ANGLES
Info: 76 DIHEDRAL
Info: 0 IMPROPER
Info: 0 CROSSTERM
Info: 0 VDW
Info: 190 VDW_PAIRS
Info: 0 NBTHOLE_PAIRS
Info: STRUCTURE SUMMARY:
Info: 49394 ATOMS
Info: 49448 BONDS
Info: 8698 ANGLES
Info: 18780 DIHEDRALS
Info: 0 IMPROPERS
Info: 0 CROSSTERMS
Info: 0 EXCLUSIONS
Info: 2336 CONSTRAINTS
Info: 44667 RIGID BONDS
Info: 103515 DEGREES OF FREEDOM
Info: 17225 HYDROGEN GROUPS
Info: 4 ATOMS IN LARGEST HYDROGEN GROUP
Info: 17225 MIGRATION GROUPS
Info: 4 ATOMS IN LARGEST MIGRATION GROUP
Info: TOTAL MASS = 301478 amu
Info: TOTAL CHARGE = 1.00115e-05 e
Info: MASS DENSITY = 0.935846 g/cm^3
Info: ATOM DENSITY = 0.0923345 atoms/A^3
Info: ADDED 70656 IMPLICIT EXCLUSIONS
Info: NONBONDED TABLE R-SQUARED SPACING: 0.0625
Info: NONBONDED TABLE SIZE: 769 POINTS
Info: REMOVING COM VELOCITY 0.00279034 -0.0165954 -0.0159448
TCL: Running for 5000 steps
ETITLE: TS BOND ANGLE DIHED IMPRP ELECT VDW BOUNDARY MISC KINETIC TOTAL TEMP POTENTIAL TOTAL3 TEMPAVG PRESSURE GPRESSURE VOLUME PRESSAVG GPRESSAVG
ENERGY: 0 384.5034 1218.0522 2908.1401 0.0000 -212729.8796 29559.7497 0.0000 0.0000 9978.4952 -168680.9390 97.0180 -178659.4342 -168671.2752 97.0180 -2361.3436 -2462.2732 534946.2959 -2361.3436 -2462.2732
ENERGY: 1000 1242.1902 1983.5979 3103.6704 0.0000 -193594.3709 26640.6853 770.2985 0.0000 24186.9534 -135666.9751 235.1626 -159853.9285 -135631.7983 218.8740 53.4829 -14.3101 522860.3069 -9.1237 -9.1713
ENERGY: 2000 1444.5253 2143.6070 3128.7098 0.0000 -184051.2201 23182.9053 799.7614 0.0000 27825.9475 -125525.7637 270.5435 -153351.7112 -125488.2069 264.5365 -22.7497 -28.9698 516019.2785 -30.7616 -31.0035
ENERGY: 3000 1541.6480 2257.1322 3128.3218 0.0000 -178585.9202 21239.1359 810.2572 0.0000 29503.3996 -120106.0255 286.8528 -149609.4251 -120068.8836 284.8713 -22.9804 -0.7060 511229.8829 -12.8169 -12.6008
ENERGY: 4000 1558.6709 2282.5218 3110.5477 0.0000 -176468.0117 20560.3967 804.5079 0.0000 30196.2482 -117955.1185 293.5892 -148151.3668 -117913.2762 293.9872 -23.1221 12.1220 506271.5361 -17.9980 -18.0853
ENERGY: 5000 1531.3457 2186.8249 3132.7104 0.0000 -175916.0106 20451.0142 780.9555 0.0000 30963.7276 -116869.4323 301.0512 -147833.1599 -116820.7898 296.7013 -53.5625 35.9183 504346.1169 -8.2976 -8.0538
TCL: Setting parameter constraintScaling to 5.0
TCL: Running for 5000 steps
ETITLE: TS BOND ANGLE DIHED IMPRP ELECT VDW BOUNDARY MISC KINETIC TOTAL TEMP POTENTIAL TOTAL3 TEMPAVG PRESSURE GPRESSURE VOLUME PRESSAVG GPRESSAVG
ENERGY: 5000 1531.3457 2186.8249 3132.7104 0.0000 -175916.0106 20451.0142 390.4778 0.0000 30961.6725 -117261.9651 301.0312 -148223.6376 -117217.7198 301.0312 -108.9727 -24.2547 504346.1169 -108.9727 -24.2547
ENERGY: 6000 1604.5223 2216.2727 3155.0617 0.0000 -176517.5476 20763.4355 646.2371 0.0000 30796.7694 -117335.2489 299.4279 -148132.0183 -117289.2596 297.8738 33.0809 -30.3124 503913.7366 -3.2592 -3.2236
ENERGY: 7000 1586.4368 2336.1268 3157.8394 0.0000 -176111.1008 20464.3609 654.9680 0.0000 30922.4875 -116988.8815 300.6502 -147911.3689 -116940.5589 298.9728 -39.8314 -9.0717 503348.3622 -12.4311 -12.9094
ENERGY: 8000 1519.9451 2320.6656 3147.5886 0.0000 -175416.2477 20132.6099 634.2429 0.0000 30757.2320 -116903.9638 299.0435 -147661.1958 -116861.3424 298.4663 -51.5217 -1.5898 504327.3857 0.6236 0.4952
ENERGY: 9000 1591.6591 2251.5952 3172.1426 0.0000 -176116.9039 20541.7273 653.2206 0.0000 30733.7684 -117172.7906 298.8154 -147906.5591 -117131.1677 299.6749 -86.1309 -20.6363 502602.7178 6.5133 6.7777
ENERGY: 10000 1602.8671 2236.4818 3143.1909 0.0000 -175509.7967 20140.3723 652.3568 0.0000 30688.1208 -117046.4070 298.3715 -147734.5278 -116997.4507 299.5167 -78.2226 -40.6648 501775.5737 -2.0370 -1.3057
TCL: Setting parameter constraintScaling to 2.5
TCL: Running for 5000 steps
ETITLE: TS BOND ANGLE DIHED IMPRP ELECT VDW BOUNDARY MISC KINETIC TOTAL TEMP POTENTIAL TOTAL3 TEMPAVG PRESSURE GPRESSURE VOLUME PRESSAVG GPRESSAVG
ENERGY: 10000 1602.8671 2236.4818 3143.1909 0.0000 -175509.7967 20140.3723 326.1784 0.0000 30686.0864 -117374.6198 298.3518 -148060.7062 -117329.0119 298.3518 -142.2409 -106.3136 501775.5737 -142.2409 -106.3136
ENERGY: 11000 1645.1573 2401.4537 3148.7317 0.0000 -175701.5647 20167.5935 516.7531 0.0000 30878.6506 -116943.2247 300.2240 -147821.8753 -116890.2874 299.6403 -42.9647 3.9324 501380.7330 1.1434 1.2146
ENERGY: 12000 1595.5817 2335.1301 3163.7757 0.0000 -175496.4639 20005.9479 520.4897 0.0000 30877.9540 -116997.5848 300.2172 -147875.5388 -116952.6754 301.0428 -101.0607 -27.7466 499658.7925 -2.6108 -2.7368
ENERGY: 13000 1617.0615 2308.0869 3179.0466 0.0000 -175530.5112 20081.4676 534.8318 0.0000 30794.5919 -117015.4248 299.4067 -147810.0167 -116968.1068 299.5775 -50.9421 8.9183 500105.0886 1.2901 1.2967
ENERGY: 14000 1611.4354 2330.7079 3191.2719 0.0000 -176108.7043 20215.2736 506.4958 0.0000 30951.9207 -117301.5990 300.9364 -148253.5197 -117256.9170 298.9227 86.4403 19.3811 498418.0956 4.5172 4.2510
ENERGY: 15000 1601.5086 2355.2522 3202.3284 0.0000 -175613.2932 20031.8104 521.8663 0.0000 30864.0558 -117036.4714 300.0821 -147900.5272 -117012.7569 299.9401 19.0828 39.9171 500096.4700 7.1665 6.5140
TCL: Setting parameter constraintScaling to 1.25
TCL: Running for 5000 steps
ETITLE: TS BOND ANGLE DIHED IMPRP ELECT VDW BOUNDARY MISC KINETIC TOTAL TEMP POTENTIAL TOTAL3 TEMPAVG PRESSURE GPRESSURE VOLUME PRESSAVG GPRESSAVG
ENERGY: 15000 1601.5086 2355.2522 3202.3284 0.0000 -175613.2932 20031.8104 260.9331 0.0000 30862.0238 -117299.4365 300.0623 -148161.4604 -117259.4843 300.0623 -65.9998 -47.7932 500096.4700 -65.9998 -47.7932
ENERGY: 16000 1617.9975 2338.8343 3160.1441 0.0000 -175562.8083 19969.1022 423.1956 0.0000 30828.2466 -117225.2879 299.7339 -148053.5345 -117183.1991 299.6965 -46.8781 -37.6640 498444.3615 -4.7967 -4.8905
ENERGY: 17000 1605.7896 2433.1750 3206.3378 0.0000 -175682.2381 20030.5566 402.7878 0.0000 30936.7287 -117066.8627 300.7887 -148003.5913 -117017.3410 300.3914 42.0259 60.4032 497725.9030 -9.6298 -9.6285
ENERGY: 18000 1605.6296 2394.9864 3197.8833 0.0000 -175734.9880 20045.7535 399.4495 0.0000 30691.8179 -117399.4679 298.4075 -148091.2857 -117350.7857 299.3164 0.6958 -46.5754 498350.2580 -7.0100 -6.7255
ENERGY: 19000 1642.6884 2389.4592 3192.4118 0.0000 -175667.9639 19970.0158 419.1914 0.0000 30881.9755 -117172.2219 300.2563 -148054.1974 -117121.2754 299.8216 -49.2518 -28.4641 498045.6920 -6.3654 -6.0563
ENERGY: 20000 1601.0488 2400.3093 3195.6264 0.0000 -175859.5901 20240.3710 401.8994 0.0000 30808.1246 -117212.2106 299.5383 -148020.3353 -117166.9655 300.0031 -25.6887 -35.6868 500053.0801 8.9716 9.1512
TCL: Setting parameter constraintScaling to 0.625
TCL: Running for 5000 steps
ETITLE: TS BOND ANGLE DIHED IMPRP ELECT VDW BOUNDARY MISC KINETIC TOTAL TEMP POTENTIAL TOTAL3 TEMPAVG PRESSURE GPRESSURE VOLUME PRESSAVG GPRESSAVG
ENERGY: 20000 1601.0488 2400.3093 3195.6264 0.0000 -175859.5901 20240.3710 200.9497 0.0000 30806.0995 -117415.1855 299.5186 -148221.2849 -117372.2793 299.5186 -13.1147 -19.7343 500053.0801 -13.1147 -19.7343
ENERGY: 21000 1598.9520 2356.0595 3205.8887 0.0000 -175464.0897 19898.1457 325.9335 0.0000 30923.5390 -117155.5712 300.6604 -148079.1103 -117112.4803 300.4628 49.4676 51.5855 498611.6695 3.4207 3.3261
ENERGY: 22000 1616.5368 2425.7785 3179.8010 0.0000 -175736.9335 20266.8990 297.2635 0.0000 31019.3422 -116931.3124 301.5919 -147950.6547 -116883.6551 300.5914 -21.2506 56.4525 499033.1778 3.1298 3.0804
ENERGY: 23000 1624.2990 2416.7384 3185.0912 0.0000 -175464.9262 19920.9818 296.6151 0.0000 30835.3498 -117185.8510 299.8030 -148021.2008 -117126.2970 300.1834 19.9786 72.4489 499275.8245 8.0276 7.7385
ENERGY: 24000 1640.5219 2363.3795 3199.2820 0.0000 -176005.0545 20141.6336 305.4117 0.0000 30805.0354 -117549.7904 299.5083 -148354.8258 -117491.8554 299.2536 -111.8280 13.1813 497770.1501 -22.2238 -22.3143
ENERGY: 25000 1646.5914 2378.4030 3168.5807 0.0000 -175973.5931 20124.4385 301.4545 0.0000 30801.1186 -117553.0064 299.4702 -148354.1250 -117503.4035 299.0372 -41.3280 6.7135 497769.3502 -2.9914 -3.2481
TCL: Setting parameter constraintScaling to 0.3125
TCL: Running for 5000 steps
ETITLE: TS BOND ANGLE DIHED IMPRP ELECT VDW BOUNDARY MISC KINETIC TOTAL TEMP POTENTIAL TOTAL3 TEMPAVG PRESSURE GPRESSURE VOLUME PRESSAVG GPRESSAVG
ENERGY: 25000 1646.5914 2378.4030 3168.5807 0.0000 -175973.5931 20124.4385 150.7273 0.0000 30799.0720 -117705.7802 299.4503 -148504.8522 -117661.4820 299.4503 -47.2134 1.3648 497769.3502 -47.2134 1.3648
ENERGY: 26000 1642.7451 2400.7826 3241.7165 0.0000 -176235.3883 20204.8453 238.5057 0.0000 30749.2128 -117757.5802 298.9655 -148506.7930 -117712.0069 299.5142 17.7435 55.0416 496630.2344 -11.4034 -10.7008
ENERGY: 27000 1591.6658 2443.3103 3240.5159 0.0000 -175880.7343 19847.6666 241.1858 0.0000 30937.3401 -117579.0498 300.7946 -148516.3899 -117529.3012 298.9889 12.2633 -36.8722 496236.1626 -3.7659 -4.1558
ENERGY: 28000 1641.0182 2458.3488 3194.6699 0.0000 -176304.3043 20328.1695 251.2961 0.0000 30974.6811 -117456.1207 301.1577 -148430.8018 -117412.9911 299.7194 -8.6303 55.6299 495050.8906 -10.2715 -10.1711
ENERGY: 29000 1630.7526 2359.4048 3202.0681 0.0000 -175888.0866 20066.3300 260.6202 0.0000 30849.2340 -117519.6769 299.9380 -148368.9109 -117478.9239 300.0699 -126.9214 8.3079 496585.9393 6.8508 7.3597
ENERGY: 30000 1621.7970 2369.9961 3210.8459 0.0000 -176079.3276 20077.6179 239.9584 0.0000 30922.6811 -117636.4313 300.6521 -148559.1124 -117581.3362 299.6451 -7.5960 -0.7736 496575.9155 -7.7696 -7.7442
TCL: Setting parameter constraintScaling to 0.15625
TCL: Running for 5000 steps
ETITLE: TS BOND ANGLE DIHED IMPRP ELECT VDW BOUNDARY MISC KINETIC TOTAL TEMP POTENTIAL TOTAL3 TEMPAVG PRESSURE GPRESSURE VOLUME PRESSAVG GPRESSAVG
ENERGY: 30000 1621.7970 2369.9961 3210.8459 0.0000 -176079.3276 20077.6179 119.9792 0.0000 30920.6505 -117758.4411 300.6324 -148679.0916 -117713.2804 300.6324 10.9271 8.5165 496575.9155 10.9271 8.5165
ENERGY: 31000 1606.3428 2399.2950 3232.8570 0.0000 -175656.6796 20028.0012 189.4894 0.0000 30550.5064 -117650.1877 297.0336 -148200.6941 -117591.4395 300.3013 70.2178 82.6000 497559.4778 6.6150 6.8280
ENERGY: 32000 1588.0938 2421.9438 3207.5554 0.0000 -175750.1967 20167.8291 182.5914 0.0000 30604.4751 -117577.7080 297.5583 -148182.1832 -117530.8028 298.8474 7.4395 93.0431 498590.5442 10.0175 9.8189
ENERGY: 33000 1614.3185 2336.9078 3215.1633 0.0000 -175772.6427 20163.4963 184.5338 0.0000 30882.0364 -117376.1866 300.2569 -148258.2230 -117319.0608 300.0457 34.7075 62.9189 500262.7059 16.0466 15.5650
ENERGY: 34000 1630.8021 2376.3801 3178.4261 0.0000 -175840.1808 19986.2700 193.5398 0.0000 30854.3040 -117620.4587 299.9873 -148474.7627 -117574.2108 299.9423 -13.1437 -32.1432 499550.2708 8.3287 8.1732
ENERGY: 35000 1636.6535 2382.5821 3186.0299 0.0000 -175827.8460 19967.1651 199.2032 0.0000 30846.1484 -117610.0638 299.9080 -148456.2121 -117560.0376 299.6573 -11.0156 37.9862 498312.9334 -0.7150 -0.7537
TCL: Setting parameter constraintScaling to 0.078125
TCL: Running for 5000 steps
ETITLE: TS BOND ANGLE DIHED IMPRP ELECT VDW BOUNDARY MISC KINETIC TOTAL TEMP POTENTIAL TOTAL3 TEMPAVG PRESSURE GPRESSURE VOLUME PRESSAVG GPRESSAVG
ENERGY: 35000 1636.6535 2382.5821 3186.0299 0.0000 -175827.8460 19967.1651 99.6016 0.0000 30844.0691 -117711.7446 299.8878 -148555.8137 -117672.1253 299.8878 -53.0703 -6.5720 498312.9334 -53.0703 -6.5720
ENERGY: 36000 1654.6929 2347.8195 3230.6536 0.0000 -175605.5948 19861.3177 143.7862 0.0000 30895.5491 -117471.7759 300.3883 -148367.3250 -117421.9309 300.1581 -30.0529 -17.1069 498642.6652 6.6688 6.5379
ENERGY: 37000 1648.5699 2425.3708 3214.1529 0.0000 -175867.0581 20072.2225 146.4652 0.0000 30868.7494 -117491.5275 300.1277 -148360.2769 -117451.0671 299.9634 -33.5698 5.0119 498998.3483 5.4375 5.6003
ENERGY: 38000 1600.2048 2408.2058 3217.1563 0.0000 -175563.2211 20181.2394 160.9035 0.0000 30872.6221 -117122.8891 300.1654 -147995.5112 -117079.2623 300.8973 -36.9529 37.3891 500330.1044 3.2344 3.4587
ENERGY: 39000 1607.6251 2444.2901 3196.9757 0.0000 -175784.9830 19990.0232 158.9313 0.0000 31051.0712 -117336.0664 301.9004 -148387.1376 -117287.0565 300.5202 -137.1630 -85.8496 499129.6616 3.5830 3.9560
ENERGY: 40000 1659.8237 2405.5551 3203.7185 0.0000 -175774.8276 20022.7745 153.1190 0.0000 31002.0481 -117327.7887 301.4238 -148329.8368 -117276.6489 300.7788 -7.4162 8.8026 497949.4964 -4.8800 -5.1881
TCL: Setting parameter constraintScaling to 0.0390625
TCL: Running for 5000 steps
ETITLE: TS BOND ANGLE DIHED IMPRP ELECT VDW BOUNDARY MISC KINETIC TOTAL TEMP POTENTIAL TOTAL3 TEMPAVG PRESSURE GPRESSURE VOLUME PRESSAVG GPRESSAVG
ENERGY: 40000 1659.8237 2405.5551 3203.7185 0.0000 -175774.8276 20022.7745 76.5595 0.0000 30999.9995 -117406.3968 301.4038 -148406.3963 -117364.5995 301.4038 -13.6979 9.2366 497949.4964 -13.6979 9.2366
ENERGY: 41000 1681.3640 2387.4998 3228.4016 0.0000 -176027.5712 20259.3864 108.7998 0.0000 30652.6465 -117709.4731 298.0266 -148362.1196 -117658.2682 299.4101 11.8301 29.4483 497986.6600 1.8054 1.9192
ENERGY: 42000 1678.0220 2439.3611 3233.5747 0.0000 -176243.9680 20166.9082 114.9149 0.0000 30759.6287 -117851.5585 299.0668 -148611.1872 -117808.9536 299.3984 50.9262 49.4237 496574.3647 -8.2805 -8.3635
ENERGY: 43000 1651.7789 2352.5002 3200.9112 0.0000 -175999.4156 20064.0123 113.6345 0.0000 30754.1197 -117862.4588 299.0132 -148616.5785 -117823.0199 298.6474 -72.6545 -14.3137 497091.9922 -3.2133 -3.4186
ENERGY: 44000 1682.1658 2369.5516 3182.5412 0.0000 -175991.2755 19998.3880 116.9404 0.0000 31079.5452 -117562.1433 302.1772 -148641.6886 -117504.5097 300.4116 -118.5619 -37.7842 496428.9805 -0.1143 -0.1592
ENERGY: 45000 1627.3909 2411.5519 3227.5175 0.0000 -176236.1864 20199.7809 128.0449 0.0000 30460.2270 -118181.6733 296.1558 -148641.9003 -118149.7661 298.2462 -74.0840 -2.2293 497149.1789 4.3445 4.4271
TCL: Setting parameter constraintScaling to 0.01953125
TCL: Running for 5000 steps
ETITLE: TS BOND ANGLE DIHED IMPRP ELECT VDW BOUNDARY MISC KINETIC TOTAL TEMP POTENTIAL TOTAL3 TEMPAVG PRESSURE GPRESSURE VOLUME PRESSAVG GPRESSAVG
ENERGY: 45000 1627.3909 2411.5519 3227.5175 0.0000 -176236.1864 20199.7809 64.0224 0.0000 30458.1759 -118247.7469 296.1359 -148705.9228 -118205.1637 296.1359 -104.7730 -27.6485 497149.1789 -104.7730 -27.6485
ENERGY: 46000 1647.7277 2424.9562 3216.0331 0.0000 -176114.1319 20120.1487 77.2199 0.0000 30645.0698 -117982.9766 297.9530 -148628.0464 -117933.2364 298.3109 -86.9097 -34.5730 497133.9040 -1.6253 -1.7369
ENERGY: 47000 1620.2244 2433.4039 3214.7373 0.0000 -175652.1867 19991.4998 81.2867 0.0000 30586.2099 -117724.8248 297.3807 -148311.0347 -117688.4752 299.5026 -145.3381 -53.4595 496971.4152 5.8810 5.6035
ENERGY: 48000 1641.9846 2393.7898 3219.4112 0.0000 -175783.3793 20018.5327 92.2066 0.0000 30964.9385 -117452.5157 301.0630 -148417.4542 -117400.7958 299.0960 -7.7229 54.9476 496909.8460 0.4869 -0.1785
ENERGY: 49000 1658.8105 2456.0430 3177.8155 0.0000 -175965.2927 19932.6435 94.2595 0.0000 31113.7601 -117531.9606 302.5099 -148645.7207 -117495.0016 299.4909 -119.2413 -94.7374 497263.8585 -6.3179 -6.1348
ENERGY: 50000 1674.7225 2299.9339 3207.9398 0.0000 -175840.0247 19964.7276 91.3094 0.0000 30704.1506 -117897.2410 298.5274 -148601.3916 -117847.9845 299.2237 -60.2180 -61.1153 495791.3847 -5.7429 -5.3533
TCL: Setting parameter constraintScaling to 0
TCL: Running for 5000 steps
ETITLE: TS BOND ANGLE DIHED IMPRP ELECT VDW BOUNDARY MISC KINETIC TOTAL TEMP POTENTIAL TOTAL3 TEMPAVG PRESSURE GPRESSURE VOLUME PRESSAVG GPRESSAVG
ENERGY: 50000 1674.7225 2299.9339 3207.9398 0.0000 -175840.0247 19964.7276 0.0000 0.0000 30702.1002 -117990.6008 298.5075 -148692.7009 -117949.9393 298.5075 -74.0570 -71.2511 495791.3847 -74.0570 -71.2511
ENERGY: 51000 1607.5646 2424.1778 3203.7744 0.0000 -175937.6630 20093.2280 0.0000 0.0000 30776.1691 -117832.7492 299.2276 -148608.9182 -117785.6609 298.9713 -48.5587 25.2565 495738.6501 -0.5382 -1.1130
ENERGY: 52000 1674.5861 2369.6671 3229.9162 0.0000 -176177.5168 20007.1633 0.0000 0.0000 30719.0113 -118177.1728 298.6719 -148896.1842 -118136.6595 298.9673 -87.3367 -39.2546 494958.8723 -13.4537 -13.2888
ENERGY: 53000 1608.5115 2365.3927 3200.0431 0.0000 -176126.9060 20153.2972 0.0000 0.0000 30723.7794 -118075.8822 298.7182 -148799.6615 -118039.3811 298.4396 -28.5429 -22.4773 497159.0938 10.9100 10.9402
ENERGY: 54000 1638.0860 2365.1313 3210.6716 0.0000 -175935.8554 19943.4757 0.0000 0.0000 30878.0113 -117900.4796 300.2178 -148778.4909 -117852.8111 299.7444 -168.1482 -50.0330 496655.6764 -1.3372 -1.2294
ENERGY: 55000 1678.0450 2340.9991 3235.1300 0.0000 -176241.0108 20214.7192 0.0000 0.0000 30839.9526 -117932.1650 299.8478 -148772.1175 -117880.9023 299.4301 -74.1469 -25.1004 497196.7060 9.5422 9.7906
