Info: SIMULATION PARAMETERS:
Info: TIMESTEP               2
Info: NUMBER OF STEPS        0
Info: STEPS PER CYCLE        10
Info: PERIODIC CELL BASIS 1  72.449 0 0
Info: PERIODIC CELL BASIS 2  0 93.247 0
Info: PERIODIC CELL BASIS 3  0 0 79.185
Info: PERIODIC CELL CENTER   -0.248 -0.156 -0.047
Info: WRAPPING WATERS AROUND PERIODIC BOUNDARIES ON OUTPUT.
Info: WRAPPING ALL CLUSTERS AROUND PERIODIC BOUNDARIES ON OUTPUT.
Info: FIRST LDB TIMESTEP     50
Info: LAST LDB TIMESTEP     -1
Info: HOM BACKGROUND SCALING 1
Info: PME BACKGROUND SCALING 1
Info: MIN ATOMS PER PATCH    40
Info: INITIAL TEMPERATURE    0
Info: CENTER OF MASS MOVING INITIALLY? NO
Info: DIELECTRIC             1
Info: EXCLUDE                SCALED ONE-FOUR
Info: 1-4 ELECTROSTATICS SCALED BY 0.833333
Info: MODIFIED 1-4 VDW PARAMETERS WILL BE USED
Info: NO DCD TRAJECTORY OUTPUT
Info: NO EXTENDED SYSTEM TRAJECTORY OUTPUT
Info: NO VELOCITY DCD OUTPUT
Info: NO FORCE DCD OUTPUT
Info: OUTPUT FILENAME        ../replicas/rep127/equilibration/eq0
Info: NO RESTART FILE
Info: SWITCHING ACTIVE
Info: SWITCHING ON           10
Info: SWITCHING OFF          12
Info: PAIRLIST DISTANCE      13.5
Info: PAIRLIST SHRINK RATE   0.01
Info: PAIRLIST GROW RATE     0.01
Info: PAIRLIST TRIGGER       0.3
Info: PAIRLISTS PER CYCLE    2
Info: PAIRLISTS ENABLED
Info: MARGIN                 0
Info: HYDROGEN GROUP CUTOFF  2.5
Info: PATCH DIMENSION        16
Info: ENERGY OUTPUT STEPS    500
Info: CROSSTERM ENERGY INCLUDED IN DIHEDRAL
Info: TIMING OUTPUT STEPS    5000
Info: PRESSURE OUTPUT STEPS  500
Info: HARMONIC CONSTRAINTS ACTIVE
Info: HARMONIC CONS EXP      2
Info: HARMONIC CONS SCALING  10
Info: CONJUGATE GRADIENT MINIMIZATION ACTIVE
Info: LINE MINIMIZATION GOAL = 0.001
Info: BABY STEP SIZE = 0.01
Info: TINY STEP SIZE = 1e-06
Info: PARTICLE MESH EWALD (PME) ACTIVE
Info: PME TOLERANCE               1e-06
Info: PME EWALD COEFFICIENT       0.257952
Info: PME INTERPOLATION ORDER     4
Info: PME GRID DIMENSIONS         80 96 80
Info: PME MAXIMUM GRID SPACING    1
Info: FULL ELECTROSTATIC EVALUATION FREQUENCY      2
Info: USING VERLET I (r-RESPA) MTS SCHEME.
Info: C1 SPLITTING OF LONG RANGE ELECTROSTATICS
Info: PLACING ATOMS IN PATCHES BY HYDROGEN GROUPS
Info: RIGID BONDS TO HYDROGEN : ALL
Info:         ERROR TOLERANCE : 1e-05
Info:          MAX ITERATIONS : 100
Info: RIGID WATER USING SETTLE ALGORITHM
Info: RANDOM NUMBER SEED     1503692267
Info: USE HYDROGEN BONDS?    NO
Info: Using AMBER format force field!
Info: AMBER PARM FILE        ../build/complex.top
Info: COORDINATE PDB         ../build/complex.pdb
Info: Exclusions in PARM file will be ignored!
Info: SCNB (VDW SCALING)     2
Info: USING ARITHMETIC MEAN TO COMBINE L-J SIGMA PARAMETERS
Info: SUMMARY OF PARAMETERS:
Info: 71 BONDS
Info: 145 ANGLES
Info:   145 HARMONIC
Info:   0 COSINE-BASED
Info: 76 DIHEDRAL
Info: 0 IMPROPER
Info: 0 CROSSTERM
Info: 0 VDW
Info: 190 VDW_PAIRS
Info: 0 NBTHOLE_PAIRS
Info: STRUCTURE SUMMARY:
Info: 49394 ATOMS
Info: 49448 BONDS
Info: 8698 ANGLES
Info: 18780 DIHEDRALS
Info: 0 IMPROPERS
Info: 0 CROSSTERMS
Info: 0 EXCLUSIONS
Info: 2336 CONSTRAINTS
Info: 47058 RIGID BONDS
Info: 101124 DEGREES OF FREEDOM
Info: 17225 HYDROGEN GROUPS
Info: 4 ATOMS IN LARGEST HYDROGEN GROUP
Info: 17225 MIGRATION GROUPS
Info: 4 ATOMS IN LARGEST MIGRATION GROUP
Info: TOTAL MASS = 301478 amu
Info: TOTAL CHARGE = 1.00115e-05 e
Info: MASS DENSITY = 0.935846 g/cm^3
Info: ATOM DENSITY = 0.0923345 atoms/A^3
Info: ADDED 70656 IMPLICIT EXCLUSIONS
Info: NONBONDED TABLE R-SQUARED SPACING: 0.0625
Info: NONBONDED TABLE SIZE: 769 POINTS
Info: REMOVING COM VELOCITY 0 0 0
TCL: Minimizing for 100 steps
ETITLE: TS BOND ANGLE DIHED IMPRP ELECT VDW BOUNDARY MISC KINETIC TOTAL TEMP POTENTIAL TOTAL3 TEMPAVG PRESSURE GPRESSURE VOLUME PRESSAVG GPRESSAVG
ENERGY: 0 155.4176 1012.2698 2855.7272 0.0000 -154496.7912 207729.2052 0.0468 0.0000 0.0000 57255.8754 0.0000 57255.8754 57255.8754 0.0000 116350.2532 86546.1670 534946.2959 116350.2532 86546.1670
ENERGY: 20 304.7550 935.7911 2893.4663 0.0000 -158672.9406 17936.6594 143.9454 0.0000 0.0000 -136458.3233 0.0000 -136458.3233 -136458.3233 0.0000 16523.9387 -239.4558 534946.2959 16523.9387 -239.4558
ENERGY: 40 198.7443 799.5727 2896.9273 0.0000 -162811.4533 16417.9536 221.3030 0.0000 0.0000 -142276.9524 0.0000 -142276.9524 -142276.9524 0.0000 15011.2702 -2135.4699 534946.2959 15011.2702 -2135.4699
ENERGY: 60 130.5283 715.3440 2898.2166 0.0000 -167496.1567 15446.7540 315.2796 0.0000 0.0000 -147990.0343 0.0000 -147990.0343 -147990.0343 0.0000 13793.8837 -3799.3986 534946.2959 13793.8837 -3799.3986
ENERGY: 80 431.2732 765.6308 2904.3786 0.0000 -169937.5286 15121.1525 372.0122 0.0000 0.0000 -150343.0814 0.0000 -150343.0814 -150343.0814 0.0000 13270.3310 -4577.2446 534946.2959 13270.3310 -4577.2446
ENERGY: 100 119.3861 710.0600 2905.2590 0.0000 -171259.7127 14991.7870 387.3613 0.0000 0.0000 -152145.8593 0.0000 -152145.8593 -152145.8593 0.0000 13056.2654 -4908.1724 534946.2959 13056.2654 -4908.1724
TCL: Setting parameter constraintScaling to 5.0
TCL: Minimizing for 100 steps
ETITLE: TS BOND ANGLE DIHED IMPRP ELECT VDW BOUNDARY MISC KINETIC TOTAL TEMP POTENTIAL TOTAL3 TEMPAVG PRESSURE GPRESSURE VOLUME PRESSAVG GPRESSAVG
ENERGY: 100 119.3861 710.0600 2905.2590 0.0000 -171259.7127 14991.7870 193.6806 0.0000 0.0000 -152339.5399 0.0000 -152339.5399 -152339.5399 0.0000 13672.7715 -23021.8184 534946.2959 13672.7715 -23021.8184
ENERGY: 120 108.8828 687.5839 2912.9266 0.0000 -172865.8761 14798.2711 281.1914 0.0000 0.0000 -154077.0203 0.0000 -154077.0203 -154077.0203 0.0000 13218.2562 -4906.0144 534946.2959 13218.2562 -4906.0144
ENERGY: 140 309.4147 708.8639 2913.8025 0.0000 -174236.7117 14731.4792 326.6408 0.0000 0.0000 -155246.5106 0.0000 -155246.5106 -155246.5106 0.0000 12971.5227 -5303.2526 534946.2959 12971.5227 -5303.2526
ENERGY: 160 265.3379 683.1440 2923.1798 0.0000 -176275.8575 14757.3669 382.9091 0.0000 0.0000 -157263.9198 0.0000 -157263.9198 -157263.9198 0.0000 12740.8927 -5736.9109 534946.2959 12740.8927 -5736.9109
ENERGY: 180 268.8261 744.0952 2928.5659 0.0000 -178995.7604 15023.5732 473.3210 0.0000 0.0000 -159557.3789 0.0000 -159557.3789 -159557.3789 0.0000 12521.5862 -6217.6794 534946.2959 12521.5862 -6217.6794
ENERGY: 200 238.9685 694.0826 2941.3672 0.0000 -181556.5860 15587.1260 546.2723 0.0000 0.0000 -161548.7695 0.0000 -161548.7695 -161548.7695 0.0000 12582.6508 -6425.1865 534946.2959 12582.6508 -6425.1865
TCL: Setting parameter constraintScaling to 2.5
TCL: Minimizing for 100 steps
ETITLE: TS BOND ANGLE DIHED IMPRP ELECT VDW BOUNDARY MISC KINETIC TOTAL TEMP POTENTIAL TOTAL3 TEMPAVG PRESSURE GPRESSURE VOLUME PRESSAVG GPRESSAVG
ENERGY: 200 238.9685 694.0826 2941.3672 0.0000 -181556.5860 15587.1260 273.1361 0.0000 0.0000 -161821.9056 0.0000 -161821.9056 -161821.9056 0.0000 13229.5659 -25656.0178 534946.2959 13229.5659 -25656.0178
ENERGY: 220 251.1255 679.9020 2933.0262 0.0000 -182083.0152 15471.0150 338.5562 0.0000 0.0000 -162409.3903 0.0000 -162409.3903 -162409.3903 0.0000 12968.0498 -6095.2370 534946.2959 12968.0498 -6095.2370
ENERGY: 240 139.3129 665.7987 2928.6047 0.0000 -182462.6299 15494.3042 343.5757 0.0000 0.0000 -162891.0338 0.0000 -162891.0338 -162891.0338 0.0000 13034.3651 -6108.1748 534946.2959 13034.3651 -6108.1748
ENERGY: 260 164.4634 683.7644 2921.6032 0.0000 -183940.9796 15800.0952 385.4966 0.0000 0.0000 -163985.5568 0.0000 -163985.5568 -163985.5568 0.0000 13031.7762 -6246.7401 534946.2959 13031.7762 -6246.7401
ENERGY: 280 168.9808 700.8576 2917.5969 0.0000 -185422.1588 16228.5073 454.8601 0.0000 0.0000 -164951.3562 0.0000 -164951.3562 -164951.3562 0.0000 13143.2659 -6338.8035 534946.2959 13143.2659 -6338.8035
ENERGY: 300 126.6762 639.5332 2916.2501 0.0000 -186094.1134 16445.5194 481.3767 0.0000 0.0000 -165484.7577 0.0000 -165484.7577 -165484.7577 0.0000 13207.5927 -6342.8749 534946.2959 13207.5927 -6342.8749
TCL: Setting parameter constraintScaling to 1.25
TCL: Minimizing for 100 steps
ETITLE: TS BOND ANGLE DIHED IMPRP ELECT VDW BOUNDARY MISC KINETIC TOTAL TEMP POTENTIAL TOTAL3 TEMPAVG PRESSURE GPRESSURE VOLUME PRESSAVG GPRESSAVG
ENERGY: 300 126.6762 639.5332 2916.2501 0.0000 -186094.1134 16445.5194 240.6884 0.0000 0.0000 -165725.4461 0.0000 -165725.4461 -165725.4461 0.0000 13655.9375 -26352.8013 534946.2959 13655.9375 -26352.8013
ENERGY: 320 264.1740 657.9043 2911.4703 0.0000 -186863.7938 16636.8889 287.3986 0.0000 0.0000 -166105.9577 0.0000 -166105.9577 -166105.9577 0.0000 13611.2013 -6010.2533 534946.2959 13611.2013 -6010.2533
ENERGY: 340 253.1425 648.3209 2912.5377 0.0000 -187625.7675 16895.7294 306.0373 0.0000 0.0000 -166609.9996 0.0000 -166609.9996 -166609.9996 0.0000 13612.7349 -6054.4134 534946.2959 13612.7349 -6054.4134
ENERGY: 360 127.2960 663.4483 2906.9922 0.0000 -188975.3876 17367.6929 351.0272 0.0000 0.0000 -167558.9310 0.0000 -167558.9310 -167558.9310 0.0000 13914.1932 -5974.1967 534946.2959 13914.1932 -5974.1967
ENERGY: 380 143.1687 635.1045 2900.1930 0.0000 -190498.2368 17970.1458 403.6371 0.0000 0.0000 -168445.9876 0.0000 -168445.9876 -168445.9876 0.0000 14055.4253 -5963.6177 534946.2959 14055.4253 -5963.6177
ENERGY: 400 149.4413 661.5276 2902.8286 0.0000 -190730.2570 18020.4470 402.0429 0.0000 0.0000 -168593.9696 0.0000 -168593.9696 -168593.9696 0.0000 14167.2024 -5920.5259 534946.2959 14167.2024 -5920.5259
TCL: Setting parameter constraintScaling to 0.625
TCL: Minimizing for 100 steps
ETITLE: TS BOND ANGLE DIHED IMPRP ELECT VDW BOUNDARY MISC KINETIC TOTAL TEMP POTENTIAL TOTAL3 TEMPAVG PRESSURE GPRESSURE VOLUME PRESSAVG GPRESSAVG
ENERGY: 400 149.4413 661.5276 2902.8286 0.0000 -190730.2570 18020.4470 201.0215 0.0000 0.0000 -168794.9911 0.0000 -168794.9911 -168794.9911 0.0000 14468.5868 -26623.9018 534946.2959 14468.5868 -26623.9018
ENERGY: 420 151.1620 634.3402 2898.0467 0.0000 -190961.6943 18079.4702 212.7537 0.0000 0.0000 -168985.9214 0.0000 -168985.9214 -168985.9214 0.0000 14368.9967 -5702.5060 534946.2959 14368.9967 -5702.5060
ENERGY: 440 161.8326 640.1279 2891.3318 0.0000 -191590.5249 18255.8828 241.8565 0.0000 0.0000 -169399.4932 0.0000 -169399.4932 -169399.4932 0.0000 14407.1808 -5742.3985 534946.2959 14407.1808 -5742.3985
ENERGY: 460 216.2344 652.2780 2887.0063 0.0000 -192031.6682 18409.8177 251.4727 0.0000 0.0000 -169614.8593 0.0000 -169614.8593 -169614.8593 0.0000 14511.4339 -5710.8016 534946.2959 14511.4339 -5710.8016
ENERGY: 480 192.6150 643.2451 2889.5255 0.0000 -192673.8581 18646.2556 267.9974 0.0000 0.0000 -170034.2194 0.0000 -170034.2194 -170034.2194 0.0000 14590.6083 -5688.6330 534946.2959 14590.6083 -5688.6330
ENERGY: 500 151.9088 636.6751 2882.5589 0.0000 -193606.1550 19010.8233 294.3805 0.0000 0.0000 -170629.8085 0.0000 -170629.8085 -170629.8085 0.0000 14756.4301 -5631.8054 534946.2959 14756.4301 -5631.8054
TCL: Setting parameter constraintScaling to 0.3125
TCL: Minimizing for 100 steps
ETITLE: TS BOND ANGLE DIHED IMPRP ELECT VDW BOUNDARY MISC KINETIC TOTAL TEMP POTENTIAL TOTAL3 TEMPAVG PRESSURE GPRESSURE VOLUME PRESSAVG GPRESSAVG
ENERGY: 500 151.9088 636.6751 2882.5589 0.0000 -193606.1550 19010.8233 147.1903 0.0000 0.0000 -170776.9987 0.0000 -170776.9987 -170776.9987 0.0000 14947.6951 -26819.9523 534946.2959 14947.6951 -26819.9523
ENERGY: 520 246.9650 656.7910 2877.7947 0.0000 -193985.4932 19137.1720 161.8590 0.0000 0.0000 -170904.9114 0.0000 -170904.9114 -170904.9114 0.0000 14901.4210 -5516.2380 534946.2959 14901.4210 -5516.2380
ENERGY: 540 391.0519 713.0254 2878.5403 0.0000 -194667.9307 19398.1537 171.2350 0.0000 0.0000 -171115.9244 0.0000 -171115.9244 -171115.9244 0.0000 15061.1243 -5439.6582 534946.2959 15061.1243 -5439.6582
ENERGY: 560 167.8953 671.5643 2872.5889 0.0000 -195225.9436 19593.1040 187.2105 0.0000 0.0000 -171733.5806 0.0000 -171733.5806 -171733.5806 0.0000 15203.8019 -5385.2387 534946.2959 15203.8019 -5385.2387
ENERGY: 580 183.6263 670.9982 2870.1794 0.0000 -195623.9615 19740.6330 200.6401 0.0000 0.0000 -171957.8844 0.0000 -171957.8844 -171957.8844 0.0000 15147.0328 -5446.7696 534946.2959 15147.0328 -5446.7696
ENERGY: 600 263.3319 698.4643 2865.4122 0.0000 -197068.5683 20321.2149 224.8678 0.0000 0.0000 -172695.2771 0.0000 -172695.2771 -172695.2771 0.0000 15509.2887 -5302.5588 534946.2959 15509.2887 -5302.5588
TCL: Setting parameter constraintScaling to 0.15625
TCL: Minimizing for 100 steps
ETITLE: TS BOND ANGLE DIHED IMPRP ELECT VDW BOUNDARY MISC KINETIC TOTAL TEMP POTENTIAL TOTAL3 TEMPAVG PRESSURE GPRESSURE VOLUME PRESSAVG GPRESSAVG
ENERGY: 600 263.3319 698.4643 2865.4122 0.0000 -197068.5683 20321.2149 112.4339 0.0000 0.0000 -172807.7110 0.0000 -172807.7110 -172807.7110 0.0000 15632.2058 -26950.0759 534946.2959 15632.2058 -26950.0759
ENERGY: 620 160.6631 638.9517 2862.0406 0.0000 -197148.7749 20345.7580 113.3757 0.0000 0.0000 -173027.9859 0.0000 -173027.9859 -173027.9859 0.0000 15545.0308 -5223.1431 534946.2959 15545.0308 -5223.1431
ENERGY: 640 213.6983 648.3830 2864.9177 0.0000 -197624.9186 20517.3486 120.5264 0.0000 0.0000 -173260.0445 0.0000 -173260.0445 -173260.0445 0.0000 15624.4427 -5197.6165 534946.2959 15624.4427 -5197.6165
ENERGY: 660 167.5063 654.5669 2853.9644 0.0000 -198338.3488 20777.6637 133.6520 0.0000 0.0000 -173750.9956 0.0000 -173750.9956 -173750.9956 0.0000 15780.4953 -5144.8255 534946.2959 15780.4953 -5144.8255
ENERGY: 680 157.1450 655.1081 2851.1254 0.0000 -198804.3802 20952.8659 140.5574 0.0000 0.0000 -174047.5785 0.0000 -174047.5785 -174047.5785 0.0000 15850.7306 -5132.2297 534946.2959 15850.7306 -5132.2297
ENERGY: 700 171.2677 656.7801 2853.5284 0.0000 -199068.1230 21051.4387 139.8077 0.0000 0.0000 -174195.3003 0.0000 -174195.3003 -174195.3003 0.0000 15892.4743 -5105.9450 534946.2959 15892.4743 -5105.9450
TCL: Setting parameter constraintScaling to 0.078125
TCL: Minimizing for 100 steps
ETITLE: TS BOND ANGLE DIHED IMPRP ELECT VDW BOUNDARY MISC KINETIC TOTAL TEMP POTENTIAL TOTAL3 TEMPAVG PRESSURE GPRESSURE VOLUME PRESSAVG GPRESSAVG
ENERGY: 700 171.2677 656.7801 2853.5284 0.0000 -199068.1230 21051.4387 69.9039 0.0000 0.0000 -174265.2042 0.0000 -174265.2042 -174265.2042 0.0000 15963.1340 -27097.4942 534946.2959 15963.1340 -27097.4942
ENERGY: 720 166.9868 648.0743 2847.0697 0.0000 -199260.4498 21114.1157 73.3327 0.0000 0.0000 -174410.8705 0.0000 -174410.8705 -174410.8705 0.0000 15964.3789 -5053.8318 534946.2959 15964.3789 -5053.8318
ENERGY: 740 179.4951 649.2055 2842.1512 0.0000 -199736.6467 21283.9686 77.6897 0.0000 0.0000 -174704.1366 0.0000 -174704.1366 -174704.1366 0.0000 16053.2071 -5023.4385 534946.2959 16053.2071 -5023.4385
ENERGY: 760 183.3679 668.8979 2842.1865 0.0000 -200155.0005 21436.3559 81.3537 0.0000 0.0000 -174942.8386 0.0000 -174942.8386 -174942.8386 0.0000 16142.6863 -4994.9222 534946.2959 16142.6863 -4994.9222
ENERGY: 780 177.7180 678.1021 2839.5342 0.0000 -200424.3236 21540.9717 83.4731 0.0000 0.0000 -175104.5246 0.0000 -175104.5246 -175104.5246 0.0000 16191.2250 -4974.5241 534946.2959 16191.2250 -4974.5241
ENERGY: 800 196.4496 690.7726 2832.4061 0.0000 -201621.0947 22016.9739 94.1391 0.0000 0.0000 -175790.3535 0.0000 -175790.3535 -175790.3535 0.0000 16391.7229 -4907.5551 534946.2959 16391.7229 -4907.5551
TCL: Setting parameter constraintScaling to 0.0390625
TCL: Minimizing for 100 steps
ETITLE: TS BOND ANGLE DIHED IMPRP ELECT VDW BOUNDARY MISC KINETIC TOTAL TEMP POTENTIAL TOTAL3 TEMPAVG PRESSURE GPRESSURE VOLUME PRESSAVG GPRESSAVG
ENERGY: 800 196.4496 690.7726 2832.4061 0.0000 -201621.0947 22016.9739 47.0695 0.0000 0.0000 -175837.4231 0.0000 -175837.4231 -175837.4231 0.0000 16433.9699 -27241.1570 534946.2959 16433.9699 -27241.1570
ENERGY: 820 170.2586 657.0578 2831.0660 0.0000 -201829.5689 22096.0449 47.7246 0.0000 0.0000 -176027.4170 0.0000 -176027.4170 -176027.4170 0.0000 16494.2281 -4837.7183 534946.2959 16494.2281 -4837.7183
ENERGY: 840 267.9152 670.7074 2829.0647 0.0000 -202276.5935 22269.6205 50.5608 0.0000 0.0000 -176188.7249 0.0000 -176188.7249 -176188.7249 0.0000 16572.9288 -4810.8376 534946.2959 16572.9288 -4810.8376
ENERGY: 860 188.3959 674.1635 2825.9055 0.0000 -202424.7234 22322.8903 51.2697 0.0000 0.0000 -176362.0985 0.0000 -176362.0985 -176362.0985 0.0000 16596.0591 -4798.9839 534946.2959 16596.0591 -4798.9839
ENERGY: 880 167.2270 665.4224 2825.3536 0.0000 -202591.9781 22387.6325 51.9707 0.0000 0.0000 -176494.3717 0.0000 -176494.3717 -176494.3717 0.0000 16645.6676 -4780.3726 534946.2959 16645.6676 -4780.3726
ENERGY: 900 202.6279 674.0930 2826.2017 0.0000 -203300.8502 22690.2172 54.5250 0.0000 0.0000 -176853.1854 0.0000 -176853.1854 -176853.1854 0.0000 16806.6248 -4700.5644 534946.2959 16806.6248 -4700.5644
TCL: Setting parameter constraintScaling to 0.01953125
TCL: Minimizing for 100 steps
ETITLE: TS BOND ANGLE DIHED IMPRP ELECT VDW BOUNDARY MISC KINETIC TOTAL TEMP POTENTIAL TOTAL3 TEMPAVG PRESSURE GPRESSURE VOLUME PRESSAVG GPRESSAVG
ENERGY: 900 202.6279 674.0930 2826.2017 0.0000 -203300.8502 22690.2172 27.2625 0.0000 0.0000 -176880.4479 0.0000 -176880.4479 -176880.4479 0.0000 16829.9175 -27247.7981 534946.2959 16829.9175 -27247.7981
ENERGY: 920 160.9847 648.5882 2820.2219 0.0000 -203389.3218 22719.0057 27.7338 0.0000 0.0000 -177012.7873 0.0000 -177012.7873 -177012.7873 0.0000 16838.4442 -4672.7307 534946.2959 16838.4442 -4672.7307
ENERGY: 940 259.3579 672.4942 2816.6863 0.0000 -203715.4709 22857.6112 29.2160 0.0000 0.0000 -177080.1053 0.0000 -177080.1053 -177080.1053 0.0000 16874.8407 -4678.6277 534946.2959 16874.8407 -4678.6277
ENERGY: 960 170.7818 661.5259 2820.0451 0.0000 -203924.7970 22947.1125 29.2150 0.0000 0.0000 -177296.1166 0.0000 -177296.1166 -177296.1166 0.0000 16943.1218 -4627.9926 534946.2959 16943.1218 -4627.9926
ENERGY: 980 168.0547 676.4867 2826.6167 0.0000 -204314.0788 23120.8242 30.1276 0.0000 0.0000 -177491.9690 0.0000 -177491.9690 -177491.9690 0.0000 17080.2529 -4556.6216 534946.2959 17080.2529 -4556.6216
ENERGY: 1000 171.5427 668.2441 2813.7498 0.0000 -205229.4022 23573.2339 33.2656 0.0000 0.0000 -177969.3663 0.0000 -177969.3663 -177969.3663 0.0000 17269.8018 -4464.9431 534946.2959 17269.8018 -4464.9431
TCL: Setting parameter constraintScaling to 0
TCL: Minimizing for 5000 steps
ETITLE: TS BOND ANGLE DIHED IMPRP ELECT VDW BOUNDARY MISC KINETIC TOTAL TEMP POTENTIAL TOTAL3 TEMPAVG PRESSURE GPRESSURE VOLUME PRESSAVG GPRESSAVG
ENERGY: 1000 171.5427 668.2441 2813.7498 0.0000 -205229.4022 23573.2339 0.0000 0.0000 0.0000 -178002.6318 0.0000 -178002.6318 -178002.6318 0.0000 17296.3054 -27246.9281 534946.2959 17296.3054 -27246.9281
ENERGY: 2000 228.6574 680.3473 2802.6912 0.0000 -214645.9764 27830.7608 0.0000 0.0000 0.0000 -183103.5197 0.0000 -183103.5197 -183103.5197 0.0000 19557.6961 -3225.7097 534946.2959 19557.6961 -3225.7097
ENERGY: 3000 184.4013 674.7919 2793.7008 0.0000 -217575.4638 28932.5067 0.0000 0.0000 0.0000 -184990.0630 0.0000 -184990.0630 -184990.0630 0.0000 20126.4145 -2969.4091 534946.2959 20126.4145 -2969.4091
ENERGY: 4000 165.1875 664.8382 2789.3674 0.0000 -218785.3489 29376.9545 0.0000 0.0000 0.0000 -185789.0013 0.0000 -185789.0013 -185789.0013 0.0000 20374.6065 -2853.2337 534946.2959 20374.6065 -2853.2337
ENERGY: 5000 164.2753 661.2186 2791.0849 0.0000 -219428.6230 29615.4547 0.0000 0.0000 0.0000 -186196.5895 0.0000 -186196.5895 -186196.5895 0.0000 20496.6696 -2791.2283 534946.2959 20496.6696 -2791.2283
ENERGY: 6000 164.3375 659.9976 2787.7814 0.0000 -219830.2803 29744.7265 0.0000 0.0000 0.0000 -186473.4372 0.0000 -186473.4372 -186473.4372 0.0000 20560.8686 -2769.8803 534946.2959 20560.8686 -2769.8803
