Info: SIMULATION PARAMETERS:
Info: TIMESTEP               2
Info: NUMBER OF STEPS        0
Info: STEPS PER CYCLE        10
Info: PERIODIC CELL BASIS 1  72.449 0 0
Info: PERIODIC CELL BASIS 2  0 93.247 0
Info: PERIODIC CELL BASIS 3  0 0 79.185
Info: PERIODIC CELL CENTER   -0.248 -0.156 -0.047
Info: WRAPPING WATERS AROUND PERIODIC BOUNDARIES ON OUTPUT.
Info: WRAPPING ALL CLUSTERS AROUND PERIODIC BOUNDARIES ON OUTPUT.
Info: FIRST LDB TIMESTEP     50
Info: LAST LDB TIMESTEP     -1
Info: HOM BACKGROUND SCALING 1
Info: PME BACKGROUND SCALING 1
Info: MIN ATOMS PER PATCH    40
Info: INITIAL TEMPERATURE    0
Info: CENTER OF MASS MOVING INITIALLY? NO
Info: DIELECTRIC             1
Info: EXCLUDE                SCALED ONE-FOUR
Info: 1-4 ELECTROSTATICS SCALED BY 0.833333
Info: MODIFIED 1-4 VDW PARAMETERS WILL BE USED
Info: NO DCD TRAJECTORY OUTPUT
Info: NO EXTENDED SYSTEM TRAJECTORY OUTPUT
Info: NO VELOCITY DCD OUTPUT
Info: NO FORCE DCD OUTPUT
Info: OUTPUT FILENAME        ../replicas/rep95/equilibration/eq0
Info: NO RESTART FILE
Info: SWITCHING ACTIVE
Info: SWITCHING ON           10
Info: SWITCHING OFF          12
Info: PAIRLIST DISTANCE      13.5
Info: PAIRLIST SHRINK RATE   0.01
Info: PAIRLIST GROW RATE     0.01
Info: PAIRLIST TRIGGER       0.3
Info: PAIRLISTS PER CYCLE    2
Info: PAIRLISTS ENABLED
Info: MARGIN                 0
Info: HYDROGEN GROUP CUTOFF  2.5
Info: PATCH DIMENSION        16
Info: ENERGY OUTPUT STEPS    500
Info: CROSSTERM ENERGY INCLUDED IN DIHEDRAL
Info: TIMING OUTPUT STEPS    5000
Info: PRESSURE OUTPUT STEPS  500
Info: HARMONIC CONSTRAINTS ACTIVE
Info: HARMONIC CONS EXP      2
Info: HARMONIC CONS SCALING  10
Info: CONJUGATE GRADIENT MINIMIZATION ACTIVE
Info: LINE MINIMIZATION GOAL = 0.001
Info: BABY STEP SIZE = 0.01
Info: TINY STEP SIZE = 1e-06
Info: PARTICLE MESH EWALD (PME) ACTIVE
Info: PME TOLERANCE               1e-06
Info: PME EWALD COEFFICIENT       0.257952
Info: PME INTERPOLATION ORDER     4
Info: PME GRID DIMENSIONS         80 96 80
Info: PME MAXIMUM GRID SPACING    1
Info: FULL ELECTROSTATIC EVALUATION FREQUENCY      2
Info: USING VERLET I (r-RESPA) MTS SCHEME.
Info: C1 SPLITTING OF LONG RANGE ELECTROSTATICS
Info: PLACING ATOMS IN PATCHES BY HYDROGEN GROUPS
Info: RIGID BONDS TO HYDROGEN : ALL
Info:         ERROR TOLERANCE : 1e-05
Info:          MAX ITERATIONS : 100
Info: RIGID WATER USING SETTLE ALGORITHM
Info: RANDOM NUMBER SEED     1503691275
Info: USE HYDROGEN BONDS?    NO
Info: Using AMBER format force field!
Info: AMBER PARM FILE        ../build/complex.top
Info: COORDINATE PDB         ../build/complex.pdb
Info: Exclusions in PARM file will be ignored!
Info: SCNB (VDW SCALING)     2
Info: USING ARITHMETIC MEAN TO COMBINE L-J SIGMA PARAMETERS
Info: SUMMARY OF PARAMETERS:
Info: 71 BONDS
Info: 145 ANGLES
Info: 76 DIHEDRAL
Info: 0 IMPROPER
Info: 0 CROSSTERM
Info: 0 VDW
Info: 190 VDW_PAIRS
Info: 0 NBTHOLE_PAIRS
Info: STRUCTURE SUMMARY:
Info: 49394 ATOMS
Info: 49448 BONDS
Info: 8698 ANGLES
Info: 18780 DIHEDRALS
Info: 0 IMPROPERS
Info: 0 CROSSTERMS
Info: 0 EXCLUSIONS
Info: 2336 CONSTRAINTS
Info: 47058 RIGID BONDS
Info: 101124 DEGREES OF FREEDOM
Info: 17225 HYDROGEN GROUPS
Info: 4 ATOMS IN LARGEST HYDROGEN GROUP
Info: 17225 MIGRATION GROUPS
Info: 4 ATOMS IN LARGEST MIGRATION GROUP
Info: TOTAL MASS = 301478 amu
Info: TOTAL CHARGE = 1.00115e-05 e
Info: MASS DENSITY = 0.935846 g/cm^3
Info: ATOM DENSITY = 0.0923345 atoms/A^3
Info: ADDED 70656 IMPLICIT EXCLUSIONS
Info: NONBONDED TABLE R-SQUARED SPACING: 0.0625
Info: NONBONDED TABLE SIZE: 769 POINTS
Info: REMOVING COM VELOCITY 0 0 0
TCL: Minimizing for 100 steps
ETITLE: TS BOND ANGLE DIHED IMPRP ELECT VDW BOUNDARY MISC KINETIC TOTAL TEMP POTENTIAL TOTAL3 TEMPAVG PRESSURE GPRESSURE VOLUME PRESSAVG GPRESSAVG
ENERGY: 0 155.4176 1012.2698 2855.7272 0.0000 -154496.7911 207729.2052 0.0468 0.0000 0.0000 57255.8755 0.0000 57255.8755 57255.8755 0.0000 116350.2532 86546.1670 534946.2959 116350.2532 86546.1670
ENERGY: 20 304.7550 935.7911 2893.4663 0.0000 -158672.9407 17936.6594 143.9454 0.0000 0.0000 -136458.3234 0.0000 -136458.3234 -136458.3234 0.0000 16523.9387 -239.4558 534946.2959 16523.9387 -239.4558
ENERGY: 40 198.7470 799.5731 2896.9273 0.0000 -162811.4540 16417.9534 221.3031 0.0000 0.0000 -142276.9501 0.0000 -142276.9501 -142276.9501 0.0000 15011.2700 -2135.4702 534946.2959 15011.2700 -2135.4702
ENERGY: 60 130.5280 715.3439 2898.2166 0.0000 -167496.1614 15446.7532 315.2797 0.0000 0.0000 -147990.0400 0.0000 -147990.0400 -147990.0400 0.0000 13793.8827 -3799.4000 534946.2959 13793.8827 -3799.4000
ENERGY: 80 431.2720 765.6304 2904.3788 0.0000 -169937.5386 15121.1514 372.0124 0.0000 0.0000 -150343.0936 0.0000 -150343.0936 -150343.0936 0.0000 13270.3284 -4577.2481 534946.2959 13270.3284 -4577.2481
ENERGY: 100 129.7122 708.0642 2904.2781 0.0000 -171050.0695 15018.6534 384.2002 0.0000 0.0000 -151905.1613 0.0000 -151905.1613 -151905.1613 0.0000 13092.9123 -4843.6318 534946.2959 13092.9123 -4843.6318
TCL: Setting parameter constraintScaling to 5.0
TCL: Minimizing for 100 steps
ETITLE: TS BOND ANGLE DIHED IMPRP ELECT VDW BOUNDARY MISC KINETIC TOTAL TEMP POTENTIAL TOTAL3 TEMPAVG PRESSURE GPRESSURE VOLUME PRESSAVG GPRESSAVG
ENERGY: 100 129.7122 708.0642 2904.2781 0.0000 -171050.0695 15018.6534 192.1001 0.0000 0.0000 -152097.2614 0.0000 -152097.2614 -152097.2614 0.0000 13703.5076 -22944.4556 534946.2959 13703.5076 -22944.4556
ENERGY: 120 118.6813 680.2874 2909.9066 0.0000 -172396.3123 14830.1206 259.9548 0.0000 0.0000 -153597.3615 0.0000 -153597.3615 -153597.3615 0.0000 13320.9479 -4756.3066 534946.2959 13320.9479 -4756.3066
ENERGY: 140 109.1475 671.1468 2912.0863 0.0000 -174830.2392 14716.1441 337.7301 0.0000 0.0000 -156083.9843 0.0000 -156083.9843 -156083.9843 0.0000 12908.9627 -5423.1401 534946.2959 12908.9627 -5423.1401
ENERGY: 160 302.9767 691.2584 2915.1766 0.0000 -176082.5773 14739.2647 369.8378 0.0000 0.0000 -157064.0630 0.0000 -157064.0630 -157064.0630 0.0000 12780.5539 -5679.6420 534946.2959 12780.5539 -5679.6420
ENERGY: 180 182.1798 640.7534 2917.0633 0.0000 -177289.4327 14805.0584 391.8976 0.0000 0.0000 -158352.4802 0.0000 -158352.4802 -158352.4802 0.0000 12715.3592 -5868.8282 534946.2959 12715.3592 -5868.8282
ENERGY: 200 200.8409 672.8097 2923.8866 0.0000 -179262.8651 15029.6500 438.8795 0.0000 0.0000 -159996.7985 0.0000 -159996.7985 -159996.7985 0.0000 12652.1174 -6145.3003 534946.2959 12652.1174 -6145.3003
TCL: Setting parameter constraintScaling to 2.5
TCL: Minimizing for 100 steps
ETITLE: TS BOND ANGLE DIHED IMPRP ELECT VDW BOUNDARY MISC KINETIC TOTAL TEMP POTENTIAL TOTAL3 TEMPAVG PRESSURE GPRESSURE VOLUME PRESSAVG GPRESSAVG
ENERGY: 200 200.8409 672.8097 2923.8866 0.0000 -179262.8651 15029.6500 219.4398 0.0000 0.0000 -160216.2382 0.0000 -160216.2382 -160216.2382 0.0000 13194.5826 -25230.3135 534946.2959 13194.5826 -25230.3135
ENERGY: 220 129.4231 648.4058 2922.2167 0.0000 -180050.3125 15072.5633 269.1021 0.0000 0.0000 -161008.6015 0.0000 -161008.6015 -161008.6015 0.0000 13073.4196 -5819.0500 534946.2959 13073.4196 -5819.0500
ENERGY: 240 166.7554 631.3581 2922.8564 0.0000 -181876.9113 15336.5380 358.8956 0.0000 0.0000 -162460.5079 0.0000 -162460.5079 -162460.5079 0.0000 12913.8329 -6149.3334 534946.2959 12913.8329 -6149.3334
ENERGY: 260 364.6510 681.2790 2926.7384 0.0000 -184019.5251 15848.7502 463.4500 0.0000 0.0000 -163734.6565 0.0000 -163734.6565 -163734.6565 0.0000 12946.4412 -6364.3928 534946.2959 12946.4412 -6364.3928
ENERGY: 280 203.5183 654.9915 2926.4751 0.0000 -186025.4931 16581.7482 535.0946 0.0000 0.0000 -165123.6654 0.0000 -165123.6654 -165123.6654 0.0000 13152.3567 -6362.8697 534946.2959 13152.3567 -6362.8697
ENERGY: 300 129.0296 634.4154 2921.8499 0.0000 -187696.2541 17313.3476 557.1005 0.0000 0.0000 -166140.5111 0.0000 -166140.5111 -166140.5111 0.0000 13543.3487 -6167.5423 534946.2959 13543.3487 -6167.5423
TCL: Setting parameter constraintScaling to 1.25
TCL: Minimizing for 100 steps
ETITLE: TS BOND ANGLE DIHED IMPRP ELECT VDW BOUNDARY MISC KINETIC TOTAL TEMP POTENTIAL TOTAL3 TEMPAVG PRESSURE GPRESSURE VOLUME PRESSAVG GPRESSAVG
ENERGY: 300 129.0296 634.4154 2921.8499 0.0000 -187696.2541 17313.3476 278.5503 0.0000 0.0000 -166419.0614 0.0000 -166419.0614 -166419.0614 0.0000 14034.5715 -26319.3446 534946.2959 14034.5715 -26319.3446
ENERGY: 320 135.1272 631.7857 2912.3674 0.0000 -188177.0714 17273.0711 319.0247 0.0000 0.0000 -166905.6955 0.0000 -166905.6955 -166905.6955 0.0000 13912.9295 -5863.2838 534946.2959 13912.9295 -5863.2838
ENERGY: 340 211.4529 635.7661 2899.5177 0.0000 -189827.2848 17638.0011 389.8533 0.0000 0.0000 -168052.6938 0.0000 -168052.6938 -168052.6938 0.0000 13920.8670 -6035.8272 534946.2959 13920.8670 -6035.8272
ENERGY: 360 236.8162 646.9321 2908.8578 0.0000 -190654.3280 17968.0864 381.1310 0.0000 0.0000 -168512.5045 0.0000 -168512.5045 -168512.5045 0.0000 14084.1731 -5957.6220 534946.2959 14084.1731 -5957.6220
ENERGY: 380 174.4179 648.7179 2904.9019 0.0000 -192247.9554 18772.7904 365.1316 0.0000 0.0000 -169381.9958 0.0000 -169381.9958 -169381.9958 0.0000 14622.5845 -5627.0026 534946.2959 14622.5845 -5627.0026
ENERGY: 400 181.2512 654.6992 2909.7831 0.0000 -194395.2696 19867.9243 417.5555 0.0000 0.0000 -170364.0563 0.0000 -170364.0563 -170364.0563 0.0000 15083.5018 -5397.6850 534946.2959 15083.5018 -5397.6850
TCL: Setting parameter constraintScaling to 0.625
TCL: Minimizing for 100 steps
ETITLE: TS BOND ANGLE DIHED IMPRP ELECT VDW BOUNDARY MISC KINETIC TOTAL TEMP POTENTIAL TOTAL3 TEMPAVG PRESSURE GPRESSURE VOLUME PRESSAVG GPRESSAVG
ENERGY: 400 181.2512 654.6992 2909.7831 0.0000 -194395.2696 19867.9243 208.7777 0.0000 0.0000 -170572.8341 0.0000 -170572.8341 -170572.8341 0.0000 15389.5772 -26578.2625 534946.2959 15389.5772 -26578.2625
ENERGY: 420 139.2251 639.2397 2882.6619 0.0000 -194586.1996 19696.1411 231.5505 0.0000 0.0000 -170997.3813 0.0000 -170997.3813 -170997.3813 0.0000 15254.0168 -5245.0001 534946.2959 15254.0168 -5245.0001
ENERGY: 440 168.0156 645.8894 2889.2031 0.0000 -194882.9279 19652.4221 261.8739 0.0000 0.0000 -171265.5238 0.0000 -171265.5238 -171265.5238 0.0000 15122.8780 -5401.6502 534946.2959 15122.8780 -5401.6502
ENERGY: 460 147.5714 644.7469 2879.2978 0.0000 -195395.2627 19767.4944 300.1485 0.0000 0.0000 -171656.0036 0.0000 -171656.0036 -171656.0036 0.0000 15151.7653 -5449.4142 534946.2959 15151.7653 -5449.4142
ENERGY: 480 152.7161 642.8176 2873.0273 0.0000 -195818.6028 19901.8378 320.5763 0.0000 0.0000 -171927.6277 0.0000 -171927.6277 -171927.6277 0.0000 15180.2119 -5459.6884 534946.2959 15180.2119 -5459.6884
ENERGY: 500 168.4210 680.0693 2892.2128 0.0000 -196305.8884 20085.5036 317.4490 0.0000 0.0000 -172162.2328 0.0000 -172162.2328 -172162.2328 0.0000 15249.7283 -5433.3906 534946.2959 15249.7283 -5433.3906
TCL: Setting parameter constraintScaling to 0.3125
TCL: Minimizing for 100 steps
ETITLE: TS BOND ANGLE DIHED IMPRP ELECT VDW BOUNDARY MISC KINETIC TOTAL TEMP POTENTIAL TOTAL3 TEMPAVG PRESSURE GPRESSURE VOLUME PRESSAVG GPRESSAVG
ENERGY: 500 168.4210 680.0693 2892.2128 0.0000 -196305.8884 20085.5036 158.7245 0.0000 0.0000 -172320.9573 0.0000 -172320.9573 -172320.9573 0.0000 15441.6440 -26967.9755 534946.2959 15441.6440 -26967.9755
ENERGY: 520 240.6856 651.4086 2872.4138 0.0000 -196703.1420 20229.4736 172.2528 0.0000 0.0000 -172536.9076 0.0000 -172536.9076 -172536.9076 0.0000 15498.1878 -5251.0656 534946.2959 15498.1878 -5251.0656
ENERGY: 540 199.0842 642.5469 2869.1452 0.0000 -197330.3463 20447.8664 192.6620 0.0000 0.0000 -172979.0416 0.0000 -172979.0416 -172979.0416 0.0000 15565.3826 -5241.9179 534946.2959 15565.3826 -5241.9179
ENERGY: 560 289.5425 663.0333 2864.3686 0.0000 -198344.0863 20840.8449 220.3338 0.0000 0.0000 -173465.9632 0.0000 -173465.9632 -173465.9632 0.0000 15725.9222 -5197.6406 534946.2959 15725.9222 -5197.6406
ENERGY: 580 177.2534 645.1546 2860.5297 0.0000 -198732.9441 20973.2508 220.5903 0.0000 0.0000 -173856.1652 0.0000 -173856.1652 -173856.1652 0.0000 15819.6720 -5159.1536 534946.2959 15819.6720 -5159.1536
ENERGY: 600 179.5993 643.3215 2855.9808 0.0000 -199533.8905 21276.5990 231.3555 0.0000 0.0000 -174347.0345 0.0000 -174347.0345 -174347.0345 0.0000 15969.9293 -5099.2048 534946.2959 15969.9293 -5099.2048
TCL: Setting parameter constraintScaling to 0.15625
TCL: Minimizing for 100 steps
ETITLE: TS BOND ANGLE DIHED IMPRP ELECT VDW BOUNDARY MISC KINETIC TOTAL TEMP POTENTIAL TOTAL3 TEMPAVG PRESSURE GPRESSURE VOLUME PRESSAVG GPRESSAVG
ENERGY: 600 179.5993 643.3215 2855.9808 0.0000 -199533.8905 21276.5990 115.6777 0.0000 0.0000 -174462.7122 0.0000 -174462.7122 -174462.7122 0.0000 16092.1143 -27094.9017 534946.2959 16092.1143 -27094.9017
ENERGY: 620 164.3905 650.4566 2852.5626 0.0000 -199782.2771 21354.7401 123.8807 0.0000 0.0000 -174636.2467 0.0000 -174636.2467 -174636.2467 0.0000 16095.4266 -4999.1610 534946.2959 16095.4266 -4999.1610
ENERGY: 640 155.4175 649.1816 2847.5884 0.0000 -200243.6832 21523.5900 135.8533 0.0000 0.0000 -174932.0523 0.0000 -174932.0523 -174932.0523 0.0000 16156.8228 -4999.0522 534946.2959 16156.8228 -4999.0522
ENERGY: 660 167.9795 657.5353 2849.9846 0.0000 -200736.9449 21706.2553 137.4198 0.0000 0.0000 -175217.7704 0.0000 -175217.7704 -175217.7704 0.0000 16262.4907 -4945.7816 534946.2959 16262.4907 -4945.7816
ENERGY: 680 149.6097 642.2686 2846.3664 0.0000 -201581.5014 22056.3304 149.0979 0.0000 0.0000 -175737.8285 0.0000 -175737.8285 -175737.8285 0.0000 16462.8437 -4852.6594 534946.2959 16462.8437 -4852.6594
ENERGY: 700 163.5012 654.7807 2834.2397 0.0000 -201901.8821 22155.0892 162.8539 0.0000 0.0000 -175931.4174 0.0000 -175931.4174 -175931.4174 0.0000 16457.2471 -4890.4877 534946.2959 16457.2471 -4890.4877
TCL: Setting parameter constraintScaling to 0.078125
TCL: Minimizing for 100 steps
ETITLE: TS BOND ANGLE DIHED IMPRP ELECT VDW BOUNDARY MISC KINETIC TOTAL TEMP POTENTIAL TOTAL3 TEMPAVG PRESSURE GPRESSURE VOLUME PRESSAVG GPRESSAVG
ENERGY: 700 163.5012 654.7807 2834.2397 0.0000 -201901.8822 22155.0892 81.4269 0.0000 0.0000 -176012.8444 0.0000 -176012.8444 -176012.8444 0.0000 16531.3357 -27217.4193 534946.2959 16531.3357 -27217.4193
ENERGY: 720 185.9754 653.4395 2837.0654 0.0000 -202089.9961 22214.4822 82.3488 0.0000 0.0000 -176116.6848 0.0000 -176116.6848 -176116.6848 0.0000 16541.1254 -4827.0126 534946.2959 16541.1254 -4827.0126
ENERGY: 740 165.1734 647.7544 2836.4696 0.0000 -202324.9370 22329.6434 83.8455 0.0000 0.0000 -176262.0506 0.0000 -176262.0506 -176262.0506 0.0000 16622.7140 -4776.3815 534946.2959 16622.7140 -4776.3815
ENERGY: 760 162.3246 641.5927 2831.1509 0.0000 -202443.4351 22354.7191 85.6511 0.0000 0.0000 -176367.9967 0.0000 -176367.9967 -176367.9967 0.0000 16626.3080 -4783.4890 534946.2959 16626.3080 -4783.4890
ENERGY: 780 256.7607 676.8234 2829.8414 0.0000 -202967.1096 22561.3315 92.6921 0.0000 0.0000 -176549.6604 0.0000 -176549.6604 -176549.6604 0.0000 16707.6370 -4770.8867 534946.2959 16707.6370 -4770.8867
ENERGY: 800 165.1072 655.8879 2824.6874 0.0000 -203895.3827 22982.3679 102.0208 0.0000 0.0000 -177165.3116 0.0000 -177165.3116 -177165.3116 0.0000 16907.8308 -4662.2301 534946.2959 16907.8308 -4662.2301
TCL: Setting parameter constraintScaling to 0.0390625
TCL: Minimizing for 100 steps
ETITLE: TS BOND ANGLE DIHED IMPRP ELECT VDW BOUNDARY MISC KINETIC TOTAL TEMP POTENTIAL TOTAL3 TEMPAVG PRESSURE GPRESSURE VOLUME PRESSAVG GPRESSAVG
ENERGY: 800 165.1072 655.8879 2824.6874 0.0000 -203895.3827 22982.3679 51.0104 0.0000 0.0000 -177216.3220 0.0000 -177216.3220 -177216.3220 0.0000 16950.4130 -27270.6735 534946.2959 16950.4130 -27270.6735
ENERGY: 820 251.2850 654.3963 2821.7722 0.0000 -204039.8003 23030.8181 51.6091 0.0000 0.0000 -177229.9195 0.0000 -177229.9195 -177229.9195 0.0000 16981.2639 -4609.5265 534946.2959 16981.2639 -4609.5265
ENERGY: 840 220.1224 652.0037 2818.7955 0.0000 -204443.9565 23219.5253 53.4325 0.0000 0.0000 -177480.0771 0.0000 -177480.0771 -177480.0771 0.0000 17091.3131 -4549.6457 534946.2959 17091.3131 -4549.6457
ENERGY: 860 217.0591 689.5057 2822.1650 0.0000 -204672.9923 23293.2070 55.3612 0.0000 0.0000 -177595.6943 0.0000 -177595.6943 -177595.6943 0.0000 17114.5964 -4548.5605 534946.2959 17114.5964 -4548.5605
ENERGY: 880 169.7321 662.7875 2816.3565 0.0000 -205006.4746 23438.7490 57.3529 0.0000 0.0000 -177861.4966 0.0000 -177861.4966 -177861.4966 0.0000 17193.5073 -4514.7071 534946.2959 17193.5073 -4514.7071
ENERGY: 900 161.1307 656.2554 2812.3452 0.0000 -205435.8034 23636.9200 59.9981 0.0000 0.0000 -178109.1540 0.0000 -178109.1540 -178109.1540 0.0000 17300.5178 -4458.8526 534946.2959 17300.5178 -4458.8526
TCL: Setting parameter constraintScaling to 0.01953125
TCL: Minimizing for 100 steps
ETITLE: TS BOND ANGLE DIHED IMPRP ELECT VDW BOUNDARY MISC KINETIC TOTAL TEMP POTENTIAL TOTAL3 TEMPAVG PRESSURE GPRESSURE VOLUME PRESSAVG GPRESSAVG
ENERGY: 900 161.1307 656.2554 2812.3452 0.0000 -205435.8034 23636.9200 29.9991 0.0000 0.0000 -178139.1531 0.0000 -178139.1531 -178139.1531 0.0000 17324.3806 -27263.2955 534946.2959 17324.3806 -27263.2955
ENERGY: 920 164.7833 647.5077 2810.9305 0.0000 -205531.8490 23673.9062 30.2299 0.0000 0.0000 -178204.4913 0.0000 -178204.4913 -178204.4913 0.0000 17331.0143 -4433.6391 534946.2959 17331.0143 -4433.6391
ENERGY: 940 161.7199 644.6501 2810.3276 0.0000 -205718.6598 23756.8647 30.8074 0.0000 0.0000 -178314.2902 0.0000 -178314.2902 -178314.2902 0.0000 17376.1782 -4412.8360 534946.2959 17376.1782 -4412.8360
ENERGY: 960 174.9559 652.7290 2809.4454 0.0000 -205909.5516 23834.9889 31.6803 0.0000 0.0000 -178405.7523 0.0000 -178405.7523 -178405.7523 0.0000 17408.3452 -4402.4602 534946.2959 17408.3452 -4402.4602
ENERGY: 980 169.6657 662.7726 2807.8702 0.0000 -206437.7043 24080.5528 33.9699 0.0000 0.0000 -178682.8730 0.0000 -178682.8730 -178682.8730 0.0000 17529.2738 -4341.8615 534946.2959 17529.2738 -4341.8615
ENERGY: 1000 173.6405 656.3454 2806.2375 0.0000 -206516.7522 24099.0608 33.8407 0.0000 0.0000 -178747.6273 0.0000 -178747.6273 -178747.6273 0.0000 17553.8747 -4328.4596 534946.2959 17553.8747 -4328.4596
TCL: Setting parameter constraintScaling to 0
TCL: Minimizing for 5000 steps
ETITLE: TS BOND ANGLE DIHED IMPRP ELECT VDW BOUNDARY MISC KINETIC TOTAL TEMP POTENTIAL TOTAL3 TEMPAVG PRESSURE GPRESSURE VOLUME PRESSAVG GPRESSAVG
ENERGY: 1000 173.6405 656.3454 2806.2375 0.0000 -206516.7522 24099.0608 0.0000 0.0000 0.0000 -178781.4680 0.0000 -178781.4680 -178781.4680 0.0000 17579.8410 -27265.5850 534946.2959 17579.8410 -27265.5850
ENERGY: 2000 167.9939 666.6412 2800.6022 0.0000 -215007.1702 27997.8308 0.0000 0.0000 0.0000 -183374.1021 0.0000 -183374.1021 -183374.1021 0.0000 19674.6884 -3155.0002 534946.2959 19674.6884 -3155.0002
ENERGY: 3000 169.8419 667.3606 2795.2859 0.0000 -217640.0487 28904.2352 0.0000 0.0000 0.0000 -185103.3251 0.0000 -185103.3251 -185103.3251 0.0000 20132.8588 -2975.6195 534946.2959 20132.8588 -2975.6195
ENERGY: 4000 165.4760 662.7191 2789.0866 0.0000 -218903.2417 29433.5972 0.0000 0.0000 0.0000 -185852.3628 0.0000 -185852.3628 -185852.3628 0.0000 20409.6424 -2833.5054 534946.2959 20409.6424 -2833.5054
ENERGY: 5000 164.8224 664.7109 2792.4451 0.0000 -219610.4394 29779.4395 0.0000 0.0000 0.0000 -186209.0215 0.0000 -186209.0215 -186209.0215 0.0000 20593.1288 -2722.3495 534946.2959 20593.1288 -2722.3495
ENERGY: 6000 165.4005 667.6602 2790.4034 0.0000 -219994.0366 29895.4928 0.0000 0.0000 0.0000 -186475.0797 0.0000 -186475.0797 -186475.0797 0.0000 20646.6779 -2708.9218 534946.2959 20646.6779 -2708.9218
