Info: SIMULATION PARAMETERS:
Info: TIMESTEP               2
Info: NUMBER OF STEPS        0
Info: STEPS PER CYCLE        10
Info: PERIODIC CELL BASIS 1  72.449 0 0
Info: PERIODIC CELL BASIS 2  0 93.247 0
Info: PERIODIC CELL BASIS 3  0 0 79.185
Info: PERIODIC CELL CENTER   -0.248 -0.156 -0.047
Info: WRAPPING WATERS AROUND PERIODIC BOUNDARIES ON OUTPUT.
Info: WRAPPING ALL CLUSTERS AROUND PERIODIC BOUNDARIES ON OUTPUT.
Info: FIRST LDB TIMESTEP     50
Info: LAST LDB TIMESTEP     -1
Info: HOM BACKGROUND SCALING 1
Info: PME BACKGROUND SCALING 1
Info: MIN ATOMS PER PATCH    40
Info: INITIAL TEMPERATURE    0
Info: CENTER OF MASS MOVING INITIALLY? NO
Info: DIELECTRIC             1
Info: EXCLUDE                SCALED ONE-FOUR
Info: 1-4 ELECTROSTATICS SCALED BY 0.833333
Info: MODIFIED 1-4 VDW PARAMETERS WILL BE USED
Info: NO DCD TRAJECTORY OUTPUT
Info: NO EXTENDED SYSTEM TRAJECTORY OUTPUT
Info: NO VELOCITY DCD OUTPUT
Info: NO FORCE DCD OUTPUT
Info: OUTPUT FILENAME        ../replicas/rep31/equilibration/eq0
Info: NO RESTART FILE
Info: SWITCHING ACTIVE
Info: SWITCHING ON           10
Info: SWITCHING OFF          12
Info: PAIRLIST DISTANCE      13.5
Info: PAIRLIST SHRINK RATE   0.01
Info: PAIRLIST GROW RATE     0.01
Info: PAIRLIST TRIGGER       0.3
Info: PAIRLISTS PER CYCLE    2
Info: PAIRLISTS ENABLED
Info: MARGIN                 0
Info: HYDROGEN GROUP CUTOFF  2.5
Info: PATCH DIMENSION        16
Info: ENERGY OUTPUT STEPS    500
Info: CROSSTERM ENERGY INCLUDED IN DIHEDRAL
Info: TIMING OUTPUT STEPS    5000
Info: PRESSURE OUTPUT STEPS  500
Info: HARMONIC CONSTRAINTS ACTIVE
Info: HARMONIC CONS EXP      2
Info: HARMONIC CONS SCALING  10
Info: CONJUGATE GRADIENT MINIMIZATION ACTIVE
Info: LINE MINIMIZATION GOAL = 0.001
Info: BABY STEP SIZE = 0.01
Info: TINY STEP SIZE = 1e-06
Info: PARTICLE MESH EWALD (PME) ACTIVE
Info: PME TOLERANCE               1e-06
Info: PME EWALD COEFFICIENT       0.257952
Info: PME INTERPOLATION ORDER     4
Info: PME GRID DIMENSIONS         80 96 80
Info: PME MAXIMUM GRID SPACING    1
Info: FULL ELECTROSTATIC EVALUATION FREQUENCY      2
Info: USING VERLET I (r-RESPA) MTS SCHEME.
Info: C1 SPLITTING OF LONG RANGE ELECTROSTATICS
Info: PLACING ATOMS IN PATCHES BY HYDROGEN GROUPS
Info: RIGID BONDS TO HYDROGEN : ALL
Info:         ERROR TOLERANCE : 1e-05
Info:          MAX ITERATIONS : 100
Info: RIGID WATER USING SETTLE ALGORITHM
Info: RANDOM NUMBER SEED     1503704181
Info: USE HYDROGEN BONDS?    NO
Info: Using AMBER format force field!
Info: AMBER PARM FILE        ../build/complex.top
Info: COORDINATE PDB         ../build/complex.pdb
Info: Exclusions in PARM file will be ignored!
Info: SCNB (VDW SCALING)     2
Info: USING ARITHMETIC MEAN TO COMBINE L-J SIGMA PARAMETERS
Info: SUMMARY OF PARAMETERS:
Info: 71 BONDS
Info: 145 ANGLES
Info: 76 DIHEDRAL
Info: 0 IMPROPER
Info: 0 CROSSTERM
Info: 0 VDW
Info: 190 VDW_PAIRS
Info: 0 NBTHOLE_PAIRS
Info: STRUCTURE SUMMARY:
Info: 49394 ATOMS
Info: 49448 BONDS
Info: 8698 ANGLES
Info: 18780 DIHEDRALS
Info: 0 IMPROPERS
Info: 0 CROSSTERMS
Info: 0 EXCLUSIONS
Info: 2336 CONSTRAINTS
Info: 47058 RIGID BONDS
Info: 101124 DEGREES OF FREEDOM
Info: 17225 HYDROGEN GROUPS
Info: 4 ATOMS IN LARGEST HYDROGEN GROUP
Info: 17225 MIGRATION GROUPS
Info: 4 ATOMS IN LARGEST MIGRATION GROUP
Info: TOTAL MASS = 301478 amu
Info: TOTAL CHARGE = 1.00115e-05 e
Info: MASS DENSITY = 0.935846 g/cm^3
Info: ATOM DENSITY = 0.0923345 atoms/A^3
Info: ADDED 70656 IMPLICIT EXCLUSIONS
Info: NONBONDED TABLE R-SQUARED SPACING: 0.0625
Info: NONBONDED TABLE SIZE: 769 POINTS
Info: REMOVING COM VELOCITY 0 0 0
TCL: Minimizing for 100 steps
ETITLE: TS BOND ANGLE DIHED IMPRP ELECT VDW BOUNDARY MISC KINETIC TOTAL TEMP POTENTIAL TOTAL3 TEMPAVG PRESSURE GPRESSURE VOLUME PRESSAVG GPRESSAVG
ENERGY: 0 155.4176 1012.2698 2855.7272 0.0000 -154496.7913 207729.2052 0.0468 0.0000 0.0000 57255.8753 0.0000 57255.8753 57255.8753 0.0000 116350.2532 86546.1670 534946.2959 116350.2532 86546.1670
ENERGY: 20 304.7537 935.7910 2893.4663 0.0000 -158672.9395 17936.6600 143.9453 0.0000 0.0000 -136458.3231 0.0000 -136458.3231 -136458.3231 0.0000 16523.9393 -239.4551 534946.2959 16523.9393 -239.4551
ENERGY: 40 198.7416 799.5723 2896.9273 0.0000 -162811.4543 16417.9534 221.3029 0.0000 0.0000 -142276.9568 0.0000 -142276.9568 -142276.9568 0.0000 15011.2700 -2135.4701 534946.2959 15011.2700 -2135.4701
ENERGY: 60 130.5286 715.3440 2898.2165 0.0000 -167496.1548 15446.7543 315.2795 0.0000 0.0000 -147990.0318 0.0000 -147990.0318 -147990.0318 0.0000 13793.8843 -3799.3979 534946.2959 13793.8843 -3799.3979
ENERGY: 80 431.2753 765.6313 2904.3782 0.0000 -169937.5164 15121.1539 372.0119 0.0000 0.0000 -150343.0658 0.0000 -150343.0658 -150343.0658 0.0000 13270.3341 -4577.2408 534946.2959 13270.3341 -4577.2408
ENERGY: 100 119.3906 710.0607 2905.2588 0.0000 -171259.7208 14991.7860 387.3613 0.0000 0.0000 -152145.8634 0.0000 -152145.8634 -152145.8634 0.0000 13056.2639 -4908.1755 534946.2959 13056.2639 -4908.1755
TCL: Setting parameter constraintScaling to 5.0
TCL: Minimizing for 100 steps
ETITLE: TS BOND ANGLE DIHED IMPRP ELECT VDW BOUNDARY MISC KINETIC TOTAL TEMP POTENTIAL TOTAL3 TEMPAVG PRESSURE GPRESSURE VOLUME PRESSAVG GPRESSAVG
ENERGY: 100 119.3906 710.0607 2905.2588 0.0000 -171259.7208 14991.7860 193.6807 0.0000 0.0000 -152339.5441 0.0000 -152339.5441 -152339.5441 0.0000 13672.7701 -23021.8214 534946.2959 13672.7701 -23021.8214
ENERGY: 120 166.4396 692.2060 2910.8262 0.0000 -172914.7639 14833.3488 281.9268 0.0000 0.0000 -154030.0166 0.0000 -154030.0166 -154030.0166 0.0000 13225.2920 -4912.9996 534946.2959 13225.2920 -4912.9996
ENERGY: 140 225.0372 696.9026 2912.9592 0.0000 -174149.1588 14732.6848 321.1700 0.0000 0.0000 -155260.4050 0.0000 -155260.4050 -155260.4050 0.0000 12997.6977 -5265.5430 534946.2959 12997.6977 -5265.5430
ENERGY: 160 269.8428 684.0246 2923.2641 0.0000 -176281.9696 14757.9522 383.1607 0.0000 0.0000 -157263.7251 0.0000 -157263.7251 -157263.7251 0.0000 12739.8696 -5744.9770 534946.2959 12739.8696 -5744.9770
ENERGY: 180 172.8777 724.9543 2929.2191 0.0000 -179190.7377 15053.8414 478.2341 0.0000 0.0000 -159831.6112 0.0000 -159831.6112 -159831.6112 0.0000 12525.4912 -6233.4968 534946.2959 12525.4912 -6233.4968
ENERGY: 200 239.3574 694.1427 2941.3800 0.0000 -181556.6588 15587.0997 546.2989 0.0000 0.0000 -161548.3800 0.0000 -161548.3800 -161548.3800 0.0000 12582.6589 -6430.5388 534946.2959 12582.6589 -6430.5388
TCL: Setting parameter constraintScaling to 2.5
TCL: Minimizing for 100 steps
ETITLE: TS BOND ANGLE DIHED IMPRP ELECT VDW BOUNDARY MISC KINETIC TOTAL TEMP POTENTIAL TOTAL3 TEMPAVG PRESSURE GPRESSURE VOLUME PRESSAVG GPRESSAVG
ENERGY: 200 239.3574 694.1427 2941.3800 0.0000 -181556.6588 15587.0997 273.1495 0.0000 0.0000 -161821.5295 0.0000 -161821.5295 -161821.5295 0.0000 13229.6034 -25661.5370 534946.2959 13229.6034 -25661.5370
ENERGY: 220 251.1452 679.3260 2933.0058 0.0000 -182080.4225 15471.4767 338.1467 0.0000 0.0000 -162407.3221 0.0000 -162407.3221 -162407.3221 0.0000 12969.4084 -6099.0712 534946.2959 12969.4084 -6099.0712
ENERGY: 240 139.6185 665.8519 2928.6298 0.0000 -182460.3687 15494.4824 343.3471 0.0000 0.0000 -162888.4390 0.0000 -162888.4390 -162888.4390 0.0000 13034.8374 -6112.8384 534946.2959 13034.8374 -6112.8384
ENERGY: 260 235.5575 706.2949 2922.4871 0.0000 -183767.6248 15761.4139 380.3468 0.0000 0.0000 -163761.5247 0.0000 -163761.5247 -163761.5247 0.0000 13014.0519 -6247.4448 534946.2959 13014.0519 -6247.4448
ENERGY: 280 345.3302 725.0963 2917.8652 0.0000 -185646.2706 16311.8028 470.0182 0.0000 0.0000 -164876.1579 0.0000 -164876.1579 -164876.1579 0.0000 13143.4714 -6373.1613 534946.2959 13143.4714 -6373.1613
ENERGY: 300 126.7664 639.8849 2916.1678 0.0000 -186099.0324 16447.0859 482.2337 0.0000 0.0000 -165486.8938 0.0000 -165486.8938 -165486.8938 0.0000 13207.0417 -6350.2466 534946.2959 13207.0417 -6350.2466
TCL: Setting parameter constraintScaling to 1.25
TCL: Minimizing for 100 steps
ETITLE: TS BOND ANGLE DIHED IMPRP ELECT VDW BOUNDARY MISC KINETIC TOTAL TEMP POTENTIAL TOTAL3 TEMPAVG PRESSURE GPRESSURE VOLUME PRESSAVG GPRESSAVG
ENERGY: 300 126.7664 639.8849 2916.1678 0.0000 -186099.0324 16447.0859 241.1168 0.0000 0.0000 -165728.0106 0.0000 -165728.0106 -165728.0106 0.0000 13655.7882 -26360.5033 534946.2959 13655.7882 -26360.5033
ENERGY: 320 132.5626 634.8687 2911.2280 0.0000 -186794.1620 16614.5971 282.9421 0.0000 0.0000 -166217.9636 0.0000 -166217.9636 -166217.9636 0.0000 13611.6095 -6007.5068 534946.2959 13611.6095 -6007.5068
ENERGY: 340 138.5066 624.8647 2909.2919 0.0000 -187232.4980 16766.8949 288.6014 0.0000 0.0000 -166504.3385 0.0000 -166504.3385 -166504.3385 0.0000 13696.5610 -5977.8779 534946.2959 13696.5610 -5977.8779
ENERGY: 360 178.7879 666.3936 2907.5644 0.0000 -188672.9101 17255.2811 341.5049 0.0000 0.0000 -167323.3783 0.0000 -167323.3783 -167323.3783 0.0000 13861.0384 -5998.6618 534946.2959 13861.0384 -5998.6618
ENERGY: 380 144.1323 634.4384 2900.5540 0.0000 -190412.9641 17933.8302 400.5425 0.0000 0.0000 -168399.4668 0.0000 -168399.4668 -168399.4668 0.0000 14039.2775 -5975.4948 534946.2959 14039.2775 -5975.4948
ENERGY: 400 150.6884 661.0605 2903.0821 0.0000 -190650.1857 17986.7686 399.0892 0.0000 0.0000 -168549.4968 0.0000 -168549.4968 -168549.4968 0.0000 14155.0270 -5930.5712 534946.2959 14155.0270 -5930.5712
TCL: Setting parameter constraintScaling to 0.625
TCL: Minimizing for 100 steps
ETITLE: TS BOND ANGLE DIHED IMPRP ELECT VDW BOUNDARY MISC KINETIC TOTAL TEMP POTENTIAL TOTAL3 TEMPAVG PRESSURE GPRESSURE VOLUME PRESSAVG GPRESSAVG
ENERGY: 400 150.6884 661.0605 2903.0821 0.0000 -190650.1857 17986.7686 199.5446 0.0000 0.0000 -168749.0415 0.0000 -168749.0415 -168749.0415 0.0000 14455.0137 -26624.9158 534946.2959 14455.0137 -26624.9158
ENERGY: 420 371.2033 672.6799 2899.7002 0.0000 -191008.7293 18079.9547 218.0002 0.0000 0.0000 -168767.1911 0.0000 -168767.1911 -168767.1911 0.0000 14336.4736 -5752.2551 534946.2959 14336.4736 -5752.2551
ENERGY: 440 162.9340 642.6807 2891.2579 0.0000 -191573.1812 18242.3517 243.2917 0.0000 0.0000 -169390.6651 0.0000 -169390.6651 -169390.6651 0.0000 14395.9660 -5758.1623 534946.2959 14395.9660 -5758.1623
ENERGY: 460 332.8341 725.0221 2891.1911 0.0000 -192437.5911 18557.0862 262.2729 0.0000 0.0000 -169669.1847 0.0000 -169669.1847 -169669.1847 0.0000 14629.5941 -5678.8473 534946.2959 14629.5941 -5678.8473
ENERGY: 480 242.6747 683.6835 2887.8657 0.0000 -193142.2181 18823.1838 284.1436 0.0000 0.0000 -170220.6669 0.0000 -170220.6669 -170220.6669 0.0000 14662.8512 -5694.8065 534946.2959 14662.8512 -5694.8065
ENERGY: 500 174.0670 668.9350 2882.1902 0.0000 -193713.7301 19038.4337 303.7315 0.0000 0.0000 -170646.3726 0.0000 -170646.3726 -170646.3726 0.0000 14699.7434 -5691.1390 534946.2959 14699.7434 -5691.1390
TCL: Setting parameter constraintScaling to 0.3125
TCL: Minimizing for 100 steps
ETITLE: TS BOND ANGLE DIHED IMPRP ELECT VDW BOUNDARY MISC KINETIC TOTAL TEMP POTENTIAL TOTAL3 TEMPAVG PRESSURE GPRESSURE VOLUME PRESSAVG GPRESSAVG
ENERGY: 500 174.0670 668.9350 2882.1902 0.0000 -193713.7300 19038.4337 151.8657 0.0000 0.0000 -170798.2383 0.0000 -170798.2383 -170798.2383 0.0000 14893.3246 -26903.4416 534946.2959 14893.3246 -26903.4416
ENERGY: 520 154.6510 631.4132 2878.2843 0.0000 -193967.8979 19130.7157 154.0950 0.0000 0.0000 -171018.7386 0.0000 -171018.7386 -171018.7386 0.0000 14968.4748 -5456.3628 534946.2959 14968.4748 -5456.3628
ENERGY: 540 166.3785 661.1931 2876.4485 0.0000 -194873.8623 19446.8611 182.1048 0.0000 0.0000 -171540.8763 0.0000 -171540.8763 -171540.8763 0.0000 15059.3050 -5469.8154 534946.2959 15059.3050 -5469.8154
ENERGY: 560 267.4285 674.0077 2869.8415 0.0000 -195721.3557 19777.8000 202.4794 0.0000 0.0000 -171929.7986 0.0000 -171929.7986 -171929.7986 0.0000 15194.0100 -5442.4141 534946.2959 15194.0100 -5442.4141
ENERGY: 580 159.1233 675.8558 2870.1776 0.0000 -195944.3530 19865.0025 203.5512 0.0000 0.0000 -172170.6426 0.0000 -172170.6426 -172170.6426 0.0000 15257.7923 -5396.1811 534946.2959 15257.7923 -5396.1811
ENERGY: 600 208.1534 646.8961 2868.1668 0.0000 -196704.7607 20168.1089 210.0465 0.0000 0.0000 -172603.3889 0.0000 -172603.3889 -172603.3889 0.0000 15388.2603 -5339.6780 534946.2959 15388.2603 -5339.6780
TCL: Setting parameter constraintScaling to 0.15625
TCL: Minimizing for 100 steps
ETITLE: TS BOND ANGLE DIHED IMPRP ELECT VDW BOUNDARY MISC KINETIC TOTAL TEMP POTENTIAL TOTAL3 TEMPAVG PRESSURE GPRESSURE VOLUME PRESSAVG GPRESSAVG
ENERGY: 600 208.1534 646.8961 2868.1668 0.0000 -196704.7607 20168.1089 105.0233 0.0000 0.0000 -172708.4122 0.0000 -172708.4122 -172708.4122 0.0000 15507.4290 -27001.6151 534946.2959 15507.4290 -27001.6151
ENERGY: 620 152.8823 647.9946 2862.4003 0.0000 -196866.2307 20212.8294 109.2495 0.0000 0.0000 -172880.8746 0.0000 -172880.8746 -172880.8746 0.0000 15536.1651 -5229.6439 534946.2959 15536.1651 -5229.6439
ENERGY: 640 165.9223 665.7163 2861.2310 0.0000 -197304.9198 20369.6663 118.5908 0.0000 0.0000 -173123.7931 0.0000 -173123.7931 -173123.7931 0.0000 15586.7690 -5234.4360 534946.2959 15586.7690 -5234.4360
ENERGY: 660 170.5010 671.3422 2854.6385 0.0000 -198534.5381 20842.5277 139.4870 0.0000 0.0000 -173856.0418 0.0000 -173856.0418 -173856.0418 0.0000 15809.9696 -5166.4516 534946.2959 15809.9696 -5166.4516
ENERGY: 680 165.6069 650.3823 2852.2851 0.0000 -198717.0329 20916.4958 141.4629 0.0000 0.0000 -173990.7999 0.0000 -173990.7999 -173990.7999 0.0000 15790.1747 -5163.2042 534946.2959 15790.1747 -5163.2042
ENERGY: 700 171.1385 655.8598 2849.0847 0.0000 -198989.0458 21015.6994 141.5826 0.0000 0.0000 -174155.6808 0.0000 -174155.6808 -174155.6808 0.0000 15884.1466 -5125.0547 534946.2959 15884.1466 -5125.0547
TCL: Setting parameter constraintScaling to 0.078125
TCL: Minimizing for 100 steps
ETITLE: TS BOND ANGLE DIHED IMPRP ELECT VDW BOUNDARY MISC KINETIC TOTAL TEMP POTENTIAL TOTAL3 TEMPAVG PRESSURE GPRESSURE VOLUME PRESSAVG GPRESSAVG
ENERGY: 700 171.1385 655.8598 2849.0847 0.0000 -198989.0458 21015.6994 70.7913 0.0000 0.0000 -174226.4721 0.0000 -174226.4721 -174226.4721 0.0000 15955.1432 -27091.0799 534946.2959 15955.1432 -27091.0799
ENERGY: 720 187.7966 658.5680 2848.1405 0.0000 -199164.1573 21075.6887 72.5311 0.0000 0.0000 -174321.4323 0.0000 -174321.4323 -174321.4323 0.0000 15974.8845 -5052.1180 534946.2959 15974.8845 -5052.1180
ENERGY: 740 161.5698 663.7242 2847.6001 0.0000 -199302.3714 21122.3890 73.8822 0.0000 0.0000 -174433.2060 0.0000 -174433.2060 -174433.2060 0.0000 16007.9551 -5038.1056 534946.2959 16007.9551 -5038.1056
ENERGY: 760 181.7861 669.6455 2842.3605 0.0000 -199965.4315 21361.9772 80.8045 0.0000 0.0000 -174828.8578 0.0000 -174828.8578 -174828.8578 0.0000 16107.0758 -5028.6108 534946.2959 16107.0758 -5028.6108
ENERGY: 780 161.3673 652.4379 2839.2625 0.0000 -200297.3623 21486.8104 83.7672 0.0000 0.0000 -175073.7171 0.0000 -175073.7171 -175073.7171 0.0000 16154.8985 -5005.1140 534946.2959 16154.8985 -5005.1140
ENERGY: 800 174.0028 661.1358 2837.6603 0.0000 -200548.0873 21584.3240 84.6236 0.0000 0.0000 -175206.3407 0.0000 -175206.3407 -175206.3407 0.0000 16211.5899 -4971.4702 534946.2959 16211.5899 -4971.4702
TCL: Setting parameter constraintScaling to 0.0390625
TCL: Minimizing for 100 steps
ETITLE: TS BOND ANGLE DIHED IMPRP ELECT VDW BOUNDARY MISC KINETIC TOTAL TEMP POTENTIAL TOTAL3 TEMPAVG PRESSURE GPRESSURE VOLUME PRESSAVG GPRESSAVG
ENERGY: 800 174.0028 661.1358 2837.6603 0.0000 -200548.0873 21584.3240 42.3118 0.0000 0.0000 -175248.6525 0.0000 -175248.6525 -175248.6525 0.0000 16251.2016 -27169.3789 534946.2959 16251.2016 -27169.3789
ENERGY: 820 164.8337 651.7866 2837.3274 0.0000 -200635.7328 21613.8603 43.0135 0.0000 0.0000 -175324.9113 0.0000 -175324.9113 -175324.9113 0.0000 16250.8168 -4945.9268 534946.2959 16250.8168 -4945.9268
ENERGY: 840 257.4448 677.1029 2834.6115 0.0000 -201092.0244 21785.5674 45.4490 0.0000 0.0000 -175491.8488 0.0000 -175491.8488 -175491.8488 0.0000 16304.7849 -4939.3796 534946.2959 16304.7849 -4939.3796
ENERGY: 860 158.3481 654.1793 2830.6150 0.0000 -201696.6974 22022.3183 48.6438 0.0000 0.0000 -175982.5929 0.0000 -175982.5929 -175982.5929 0.0000 16465.1489 -4866.2416 534946.2959 16465.1489 -4866.2416
ENERGY: 880 175.4811 679.1227 2827.9608 0.0000 -202010.6996 22147.3010 49.8853 0.0000 0.0000 -176130.9487 0.0000 -176130.9487 -176130.9487 0.0000 16541.6069 -4838.9326 534946.2959 16541.6069 -4838.9326
ENERGY: 900 170.6888 663.9953 2825.2506 0.0000 -203051.7876 22596.5757 54.4052 0.0000 0.0000 -176740.8721 0.0000 -176740.8721 -176740.8721 0.0000 16720.6231 -4747.0426 534946.2959 16720.6231 -4747.0426
TCL: Setting parameter constraintScaling to 0.01953125
TCL: Minimizing for 100 steps
ETITLE: TS BOND ANGLE DIHED IMPRP ELECT VDW BOUNDARY MISC KINETIC TOTAL TEMP POTENTIAL TOTAL3 TEMPAVG PRESSURE GPRESSURE VOLUME PRESSAVG GPRESSAVG
ENERGY: 900 170.6888 663.9953 2825.2506 0.0000 -203051.7876 22596.5757 27.2026 0.0000 0.0000 -176768.0747 0.0000 -176768.0747 -176768.0747 0.0000 16743.8231 -27280.6411 534946.2959 16743.8231 -27280.6411
ENERGY: 920 171.2346 653.7672 2820.8442 0.0000 -203233.7048 22657.7606 27.8811 0.0000 0.0000 -176902.2171 0.0000 -176902.2171 -176902.2171 0.0000 16784.0265 -4708.8658 534946.2959 16784.0265 -4708.8658
ENERGY: 940 244.9746 680.9924 2817.9209 0.0000 -203578.8301 22801.0335 29.0913 0.0000 0.0000 -177004.8173 0.0000 -177004.8173 -177004.8173 0.0000 16839.7950 -4696.1626 534946.2959 16839.7950 -4696.1626
ENERGY: 960 170.8126 671.7639 2820.2295 0.0000 -204056.8277 23034.2626 29.9135 0.0000 0.0000 -177329.8456 0.0000 -177329.8456 -177329.8456 0.0000 17008.5679 -4593.9786 534946.2959 17008.5679 -4593.9786
ENERGY: 980 167.2470 661.0092 2814.1260 0.0000 -204176.6105 23053.5344 30.5101 0.0000 0.0000 -177450.1838 0.0000 -177450.1838 -177450.1838 0.0000 16989.2094 -4620.9045 534946.2959 16989.2094 -4620.9045
ENERGY: 1000 168.5082 662.3458 2815.0850 0.0000 -204326.5388 23122.1683 31.4014 0.0000 0.0000 -177527.0301 0.0000 -177527.0301 -177527.0301 0.0000 17025.5688 -4610.0683 534946.2959 17025.5688 -4610.0683
TCL: Setting parameter constraintScaling to 0
TCL: Minimizing for 5000 steps
ETITLE: TS BOND ANGLE DIHED IMPRP ELECT VDW BOUNDARY MISC KINETIC TOTAL TEMP POTENTIAL TOTAL3 TEMPAVG PRESSURE GPRESSURE VOLUME PRESSAVG GPRESSAVG
ENERGY: 1000 168.5082 662.3458 2815.0850 0.0000 -204326.5388 23122.1683 0.0000 0.0000 0.0000 -177558.4315 0.0000 -177558.4315 -177558.4315 0.0000 17051.0589 -27277.8865 534946.2959 17051.0589 -27277.8865
ENERGY: 2000 165.9168 664.8613 2800.9016 0.0000 -214632.0852 27728.2732 0.0000 0.0000 0.0000 -183272.1323 0.0000 -183272.1323 -183272.1323 0.0000 19509.6403 -3287.3540 534946.2959 19509.6403 -3287.3540
ENERGY: 3000 170.1436 668.8534 2793.3725 0.0000 -217442.3012 28841.7840 0.0000 0.0000 0.0000 -184968.1478 0.0000 -184968.1478 -184968.1478 0.0000 20073.2099 -3010.1360 534946.2959 20073.2099 -3010.1360
ENERGY: 4000 167.0526 666.6814 2789.1288 0.0000 -218599.2297 29299.4988 0.0000 0.0000 0.0000 -185676.8682 0.0000 -185676.8682 -185676.8682 0.0000 20325.2468 -2869.5844 534946.2959 20325.2468 -2869.5844
ENERGY: 5000 165.5574 666.6249 2787.5269 0.0000 -219379.0468 29590.9698 0.0000 0.0000 0.0000 -186168.3677 0.0000 -186168.3677 -186168.3677 0.0000 20473.4445 -2807.7716 534946.2959 20473.4445 -2807.7716
ENERGY: 6000 166.2473 666.3803 2785.3012 0.0000 -219749.5748 29711.3556 0.0000 0.0000 0.0000 -186420.2904 0.0000 -186420.2904 -186420.2904 0.0000 20535.1772 -2789.1328 534946.2959 20535.1772 -2789.1328
