Info: SIMULATION PARAMETERS:
Info: TIMESTEP               1
Info: NUMBER OF STEPS        0
Info: STEPS PER CYCLE        10
Info: PERIODIC CELL BASIS 1  72.449 0 0
Info: PERIODIC CELL BASIS 2  0 93.247 0
Info: PERIODIC CELL BASIS 3  0 0 79.185
Info: PERIODIC CELL CENTER   -0.248 -0.156 -0.047
Info: WRAPPING WATERS AROUND PERIODIC BOUNDARIES ON OUTPUT.
Info: WRAPPING ALL CLUSTERS AROUND PERIODIC BOUNDARIES ON OUTPUT.
Info: FIRST LDB TIMESTEP     50
Info: LAST LDB TIMESTEP     -1
Info: HOM BACKGROUND SCALING 1
Info: PME BACKGROUND SCALING 1
Info: MIN ATOMS PER PATCH    40
Info: VELOCITY FILE          ../replicas/rep2/equilibration/eq1.vel
Info: CENTER OF MASS MOVING INITIALLY? NO
Info: DIELECTRIC             1
Info: EXCLUDE                SCALED ONE-FOUR
Info: 1-4 ELECTROSTATICS SCALED BY 0.833333
Info: MODIFIED 1-4 VDW PARAMETERS WILL BE USED
Info: DCD FILENAME           ../replicas/rep2/equilibration/eq2.dcd
Info: DCD FREQUENCY          5000
Info: DCD FIRST STEP         5000
Info: DCD FILE WILL CONTAIN UNIT CELL DATA
Info: XST FILENAME           ../replicas/rep2/equilibration/eq2.xst
Info: XST FREQUENCY          5000
Info: NO VELOCITY DCD OUTPUT
Info: NO FORCE DCD OUTPUT
Info: OUTPUT FILENAME        ../replicas/rep2/equilibration/eq2
Info: RESTART FILENAME       ../replicas/rep2/equilibration/eq2.restart
Info: RESTART FREQUENCY      5000
Info: BINARY RESTART FILES WILL BE USED
Info: SWITCHING ACTIVE
Info: SWITCHING ON           10
Info: SWITCHING OFF          12
Info: PAIRLIST DISTANCE      13.5
Info: PAIRLIST SHRINK RATE   0.01
Info: PAIRLIST GROW RATE     0.01
Info: PAIRLIST TRIGGER       0.3
Info: PAIRLISTS PER CYCLE    2
Info: PAIRLISTS ENABLED
Info: MARGIN                 0.48
Info: HYDROGEN GROUP CUTOFF  2.5
Info: PATCH DIMENSION        16.48
Info: ENERGY OUTPUT STEPS    500
Info: CROSSTERM ENERGY INCLUDED IN DIHEDRAL
Info: TIMING OUTPUT STEPS    5000
Info: PRESSURE OUTPUT STEPS  500
Info: HARMONIC CONSTRAINTS ACTIVE
Info: HARMONIC CONS EXP      2
Info: HARMONIC CONS SCALING  10
Info: LANGEVIN DYNAMICS ACTIVE
Info: LANGEVIN TEMPERATURE   300
Info: LANGEVIN USING BBK INTEGRATOR
Info: LANGEVIN DAMPING COEFFICIENT IS 5 INVERSE PS
Info: LANGEVIN DYNAMICS NOT APPLIED TO HYDROGENS
Info: BERENDSEN PRESSURE COUPLING ACTIVE
Info:     TARGET PRESSURE IS 1 BAR
Info:     COMPRESSIBILITY ESTIMATE IS 4.57e-05 BAR^(-1)
Info:     RELAXATION TIME IS 100 FS
Info:     APPLIED EVERY 2 STEPS
Info:     PRESSURE CONTROL IS GROUP-BASED
Info:       CELL FLUCTUATION IS ISOTROPIC
Info: PARTICLE MESH EWALD (PME) ACTIVE
Info: PME TOLERANCE               1e-06
Info: PME EWALD COEFFICIENT       0.257952
Info: PME INTERPOLATION ORDER     4
Info: PME GRID DIMENSIONS         80 96 80
Info: PME MAXIMUM GRID SPACING    1
Info: FULL ELECTROSTATIC EVALUATION FREQUENCY      2
Info: USING VERLET I (r-RESPA) MTS SCHEME.
Info: C1 SPLITTING OF LONG RANGE ELECTROSTATICS
Info: PLACING ATOMS IN PATCHES BY HYDROGEN GROUPS
Info: RIGID BONDS TO HYDROGEN : WATER
Info:         ERROR TOLERANCE : 1e-05
Info:          MAX ITERATIONS : 100
Info: RIGID WATER USING SETTLE ALGORITHM
Info: RANDOM NUMBER SEED     1503266234
Info: USE HYDROGEN BONDS?    NO
Info: Using AMBER format force field!
Info: AMBER PARM FILE        ../build/complex.top
Info: COORDINATE PDB         ../replicas/rep2/equilibration/eq1.coor
Info: Exclusions in PARM file will be ignored!
Info: SCNB (VDW SCALING)     2
Info: USING ARITHMETIC MEAN TO COMBINE L-J SIGMA PARAMETERS
Info: SUMMARY OF PARAMETERS:
Info: 71 BONDS
Info: 145 ANGLES
Info: 76 DIHEDRAL
Info: 0 IMPROPER
Info: 0 CROSSTERM
Info: 0 VDW
Info: 190 VDW_PAIRS
Info: 0 NBTHOLE_PAIRS
Info: STRUCTURE SUMMARY:
Info: 49394 ATOMS
Info: 49448 BONDS
Info: 8698 ANGLES
Info: 18780 DIHEDRALS
Info: 0 IMPROPERS
Info: 0 CROSSTERMS
Info: 0 EXCLUSIONS
Info: 2336 CONSTRAINTS
Info: 44667 RIGID BONDS
Info: 103515 DEGREES OF FREEDOM
Info: 17225 HYDROGEN GROUPS
Info: 4 ATOMS IN LARGEST HYDROGEN GROUP
Info: 17225 MIGRATION GROUPS
Info: 4 ATOMS IN LARGEST MIGRATION GROUP
Info: TOTAL MASS = 301478 amu
Info: TOTAL CHARGE = 1.00115e-05 e
Info: MASS DENSITY = 0.935846 g/cm^3
Info: ATOM DENSITY = 0.0923345 atoms/A^3
Info: ADDED 70656 IMPLICIT EXCLUSIONS
Info: NONBONDED TABLE R-SQUARED SPACING: 0.0625
Info: NONBONDED TABLE SIZE: 769 POINTS
Info: REMOVING COM VELOCITY -0.00483116 -0.00600103 -0.0143292
TCL: Running for 5000 steps
ETITLE: TS BOND ANGLE DIHED IMPRP ELECT VDW BOUNDARY MISC KINETIC TOTAL TEMP POTENTIAL TOTAL3 TEMPAVG PRESSURE GPRESSURE VOLUME PRESSAVG GPRESSAVG
ENERGY: 0 391.6584 1231.1942 2910.5573 0.0000 -212752.0394 29492.3153 0.0000 0.0000 10091.9965 -168634.3176 98.1215 -178726.3141 -168624.7464 98.1215 -2417.7958 -2526.7582 534946.2959 -2417.7958 -2526.7582
ENERGY: 1000 1207.4542 1994.0317 3109.2837 0.0000 -193945.5439 26603.7159 764.3968 0.0000 24148.2764 -136118.3852 234.7866 -160266.6616 -136080.6427 218.5404 6.4379 42.4820 522305.6419 -14.9072 -14.3569
ENERGY: 2000 1479.1374 2148.2724 3124.1156 0.0000 -184930.3841 23839.7691 775.6376 0.0000 27735.6648 -125827.7871 269.6657 -153563.4519 -125797.8050 263.0699 -73.3462 -34.8146 517554.2250 -17.7865 -18.1100
ENERGY: 3000 1521.0602 2181.0064 3137.9010 0.0000 -179263.3607 21796.7466 806.3856 0.0000 29387.1358 -120433.1251 285.7224 -149820.2608 -120406.9450 284.0364 -24.7543 -31.3675 511871.8152 -20.0257 -19.7556
ENERGY: 4000 1598.1183 2271.5533 3146.3793 0.0000 -177019.7091 20713.2192 793.5683 0.0000 30298.9187 -118197.9520 294.5874 -148496.8706 -118151.2959 292.8687 -60.1714 -29.3064 507474.6142 -14.5311 -14.6641
ENERGY: 5000 1602.9432 2319.1728 3135.8214 0.0000 -176117.4409 20488.1702 826.7069 0.0000 30726.7706 -117017.8558 298.7473 -147744.6264 -116974.6506 297.5292 15.4644 -14.0722 505978.1296 -10.6184 -10.2875
TCL: Setting parameter constraintScaling to 5.0
TCL: Running for 5000 steps
ETITLE: TS BOND ANGLE DIHED IMPRP ELECT VDW BOUNDARY MISC KINETIC TOTAL TEMP POTENTIAL TOTAL3 TEMPAVG PRESSURE GPRESSURE VOLUME PRESSAVG GPRESSAVG
ENERGY: 5000 1602.9432 2319.1728 3135.8214 0.0000 -176117.4409 20488.1702 413.3535 0.0000 30724.7266 -117433.2533 298.7274 -148157.9799 -117388.5893 298.7274 -47.2461 -72.2876 505978.1296 -47.2461 -72.2876
ENERGY: 6000 1636.4900 2309.2786 3153.0632 0.0000 -175725.4040 20457.8444 642.5968 0.0000 30521.1002 -117005.0308 296.7476 -147526.1310 -116959.9667 298.4323 43.6879 35.8124 504161.9891 -10.9567 -10.7572
ENERGY: 7000 1570.0902 2296.5220 3144.9960 0.0000 -175360.9587 20099.6832 639.5898 0.0000 30925.6354 -116684.4421 300.6808 -147610.0776 -116635.7553 299.1474 -25.8846 6.9307 504735.3373 -3.9159 -3.9939
ENERGY: 8000 1613.6405 2312.1522 3173.8172 0.0000 -174908.2600 19985.7031 645.2615 0.0000 30797.8889 -116379.7968 299.4388 -147177.6856 -116342.4201 301.0232 24.5628 -2.0893 502628.6244 -5.6673 -6.0534
ENERGY: 9000 1588.8577 2358.1483 3142.0163 0.0000 -175307.3056 20148.4213 624.6431 0.0000 30985.7073 -116459.5115 301.2649 -147445.2189 -116419.6129 300.9496 -8.6654 41.4681 500928.0887 -9.1367 -9.4448
ENERGY: 10000 1593.8071 2302.2695 3145.4355 0.0000 -175078.8298 19751.8610 634.9729 0.0000 30918.7523 -116731.7314 300.6139 -147650.4837 -116683.7705 300.1032 -4.6031 55.8849 502019.9860 -4.4237 -4.7930
TCL: Setting parameter constraintScaling to 2.5
TCL: Running for 5000 steps
ETITLE: TS BOND ANGLE DIHED IMPRP ELECT VDW BOUNDARY MISC KINETIC TOTAL TEMP POTENTIAL TOTAL3 TEMPAVG PRESSURE GPRESSURE VOLUME PRESSAVG GPRESSAVG
ENERGY: 10000 1593.8071 2302.2695 3145.4355 0.0000 -175078.8298 19751.8610 317.4865 0.0000 30916.7291 -117051.2411 300.5942 -147967.9702 -117007.1590 300.5942 -95.7528 -48.2822 502019.9860 -95.7528 -48.2822
ENERGY: 11000 1649.0206 2367.6603 3208.4188 0.0000 -175251.9896 20012.2547 497.8118 0.0000 30791.6201 -116725.2033 299.3778 -147516.8235 -116679.7059 299.7605 -13.0049 -7.2215 500409.9876 -3.8168 -3.8631
ENERGY: 12000 1604.7098 2407.3694 3166.2549 0.0000 -175557.8478 20074.5557 485.5716 0.0000 31203.6003 -116615.7861 303.3834 -147819.3864 -116576.0022 301.2324 -77.9511 8.1098 501233.4423 0.0253 -0.1619
ENERGY: 13000 1634.1198 2275.7053 3167.6379 0.0000 -175129.2789 20027.5278 513.2848 0.0000 31067.2469 -116443.7562 302.0577 -147511.0032 -116403.8295 301.8095 23.4893 10.1959 499957.9843 6.1511 5.9805
ENERGY: 14000 1542.3668 2369.1718 3175.4722 0.0000 -175622.9567 20221.8514 497.6407 0.0000 30840.0779 -116976.3760 299.8490 -147816.4539 -116934.4476 299.7712 -198.5405 -24.4352 499462.6922 -5.6551 -5.5251
ENERGY: 15000 1648.6345 2329.6624 3195.3466 0.0000 -176179.4820 20280.0459 524.7382 0.0000 30663.8306 -117537.2237 298.1354 -148201.0543 -117490.8727 298.0073 -20.8178 -14.3813 499363.3771 -4.2470 -4.0121
TCL: Setting parameter constraintScaling to 1.25
TCL: Running for 5000 steps
ETITLE: TS BOND ANGLE DIHED IMPRP ELECT VDW BOUNDARY MISC KINETIC TOTAL TEMP POTENTIAL TOTAL3 TEMPAVG PRESSURE GPRESSURE VOLUME PRESSAVG GPRESSAVG
ENERGY: 15000 1648.6345 2329.6624 3195.3466 0.0000 -176179.4820 20280.0459 262.3691 0.0000 30661.8072 -117801.6162 298.1157 -148463.4234 -117760.2409 298.1157 -12.4208 -0.9059 499363.3771 -12.4208 -0.9059
ENERGY: 16000 1595.2994 2392.5715 3201.7578 0.0000 -175670.2179 20095.0610 418.6261 0.0000 30815.8866 -117151.0154 299.6138 -147966.9020 -117110.1692 299.6128 3.6714 42.0640 501077.9226 11.5169 11.9344
ENERGY: 17000 1589.7671 2440.4695 3204.8422 0.0000 -175374.7099 19894.8581 410.4212 0.0000 30716.4675 -117117.8844 298.6471 -147834.3518 -117077.3539 299.4928 56.1952 42.4315 500087.5417 6.6002 6.6694
ENERGY: 18000 1593.1332 2372.4800 3203.4202 0.0000 -175428.9881 19898.9880 381.5671 0.0000 30655.2161 -117324.1834 298.0516 -147979.3995 -117280.1944 299.1805 10.2126 54.6900 499718.8135 -4.6280 -4.5494
ENERGY: 19000 1645.4620 2342.6068 3217.2329 0.0000 -175107.2890 19678.8507 380.8545 0.0000 30706.4901 -117135.7920 298.5501 -147842.2821 -117092.0772 300.3657 -52.1582 -0.9123 499502.4986 -4.7531 -4.5015
ENERGY: 20000 1579.5521 2431.0980 3171.3460 0.0000 -175786.5914 20201.2925 389.7368 0.0000 31004.1597 -117009.4063 301.4443 -148013.5659 -116947.8156 300.4194 -6.2756 4.3423 499917.6793 4.1149 4.0483
TCL: Setting parameter constraintScaling to 0.625
TCL: Running for 5000 steps
ETITLE: TS BOND ANGLE DIHED IMPRP ELECT VDW BOUNDARY MISC KINETIC TOTAL TEMP POTENTIAL TOTAL3 TEMPAVG PRESSURE GPRESSURE VOLUME PRESSAVG GPRESSAVG
ENERGY: 20000 1579.5521 2431.0980 3171.3460 0.0000 -175786.5913 20201.2925 194.8684 0.0000 31002.1213 -117206.3130 301.4245 -148208.4343 -117159.8336 301.4245 -8.7947 0.8172 499917.6793 -8.7947 0.8172
ENERGY: 21000 1606.5883 2411.9156 3206.7157 0.0000 -175043.4499 19637.9507 340.5931 0.0000 30862.5607 -116977.1257 300.0676 -147839.6865 -116923.9808 300.9290 -81.9707 -20.5396 499016.5622 -7.0256 -7.1939
ENERGY: 22000 1602.1242 2357.0322 3200.9460 0.0000 -175461.4580 20144.0320 324.3926 0.0000 30885.9715 -116946.9595 300.2952 -147832.9309 -116898.6707 300.6043 -13.4529 -5.7184 498587.1385 -0.7995 -1.3528
ENERGY: 23000 1616.5378 2473.1460 3166.7788 0.0000 -175300.9235 19794.1366 304.5359 0.0000 30892.1693 -117053.6192 300.3554 -147945.7885 -117003.5365 300.3503 -135.7522 -96.6399 497919.2922 -8.7407 -8.7484
ENERGY: 24000 1611.7680 2438.6117 3178.0344 0.0000 -175840.0575 20087.2309 301.8265 0.0000 30947.2842 -117275.3019 300.8913 -148222.5860 -117231.7161 298.5596 -68.4822 23.8225 499514.6260 7.4633 7.0349
ENERGY: 25000 1625.5890 2379.5684 3227.0321 0.0000 -175977.9108 20189.0296 320.7631 0.0000 30800.8698 -117435.0587 299.4678 -148235.9285 -117384.6624 298.9312 -52.4380 -62.1742 499264.9335 3.9936 4.1974
TCL: Setting parameter constraintScaling to 0.3125
TCL: Running for 5000 steps
ETITLE: TS BOND ANGLE DIHED IMPRP ELECT VDW BOUNDARY MISC KINETIC TOTAL TEMP POTENTIAL TOTAL3 TEMPAVG PRESSURE GPRESSURE VOLUME PRESSAVG GPRESSAVG
ENERGY: 25000 1625.5890 2379.5684 3227.0321 0.0000 -175977.9108 20189.0296 160.3816 0.0000 30798.8369 -117597.4732 299.4480 -148396.3101 -117554.2561 299.4480 -76.9325 -93.1293 499264.9335 -76.9325 -93.1293
ENERGY: 26000 1664.6049 2413.0134 3188.2199 0.0000 -175661.1782 20033.1858 226.8850 0.0000 30962.1375 -117173.1317 301.0357 -148135.2692 -117127.7601 299.6773 -56.0671 -54.6068 499322.4514 4.8382 5.3488
ENERGY: 27000 1654.3115 2394.0401 3208.5659 0.0000 -176175.5838 20322.6541 248.9725 0.0000 30771.7804 -117575.2593 299.1849 -148347.0397 -117529.9059 300.1168 -51.0017 9.3791 498454.7816 1.2714 1.6233
ENERGY: 28000 1635.1494 2406.2118 3224.7459 0.0000 -176024.4179 20255.9632 267.5796 0.0000 30912.1838 -117322.5842 300.5500 -148234.7680 -117280.7325 299.0027 -95.8481 -37.3673 499527.4740 8.5293 8.9428
ENERGY: 29000 1637.9349 2356.0177 3254.9165 0.0000 -175819.5156 20187.4270 245.2042 0.0000 30985.3553 -117152.6600 301.2615 -148138.0153 -117104.9895 299.4288 43.1920 73.9184 499341.5908 3.4779 3.4041
ENERGY: 30000 1670.8725 2382.9228 3176.3114 0.0000 -175938.0400 20230.4217 247.6626 0.0000 30763.5963 -117466.2527 299.1054 -148229.8489 -117419.8411 299.5392 -85.6037 -1.4461 497872.4221 -2.4402 -2.3882
TCL: Setting parameter constraintScaling to 0.15625
TCL: Running for 5000 steps
ETITLE: TS BOND ANGLE DIHED IMPRP ELECT VDW BOUNDARY MISC KINETIC TOTAL TEMP POTENTIAL TOTAL3 TEMPAVG PRESSURE GPRESSURE VOLUME PRESSAVG GPRESSAVG
ENERGY: 30000 1670.8725 2382.9228 3176.3114 0.0000 -175938.0400 20230.4217 123.8313 0.0000 30761.5657 -117592.1146 299.0856 -148353.6802 -117551.1933 299.0856 -103.9144 -17.0078 497872.4221 -103.9144 -17.0078
ENERGY: 31000 1650.8034 2381.8918 3196.5507 0.0000 -175635.2867 20162.5550 185.0215 0.0000 30944.8170 -117113.6473 300.8673 -148058.4643 -117081.9625 300.6971 -117.8669 6.8226 497845.5482 6.0800 5.2140
ENERGY: 32000 1650.4902 2383.8534 3210.2581 0.0000 -175286.6947 19867.6586 204.4945 0.0000 30947.5862 -117022.3537 300.8942 -147969.9399 -116973.5789 300.3127 -120.4231 -78.4508 499440.7445 2.1127 2.4720
ENERGY: 33000 1623.4440 2420.4862 3177.3712 0.0000 -175545.4542 19997.0854 191.2490 0.0000 30831.1354 -117304.6831 299.7620 -148135.8185 -117258.2540 299.9316 37.3784 19.7641 498464.6456 2.0341 2.3901
ENERGY: 34000 1598.5146 2344.7592 3220.7608 0.0000 -175566.3522 19920.2803 188.6900 0.0000 30770.9277 -117522.4197 299.1766 -148293.3473 -117477.0882 300.4889 -65.0474 -65.1455 497897.8704 7.5873 6.9014
ENERGY: 35000 1560.0584 2430.7460 3211.3531 0.0000 -175898.4837 19999.7468 204.4781 0.0000 30663.5880 -117828.5133 298.1330 -148492.1013 -117781.0981 298.5934 -141.2264 -81.2822 496689.2688 -18.5404 -18.5976
TCL: Setting parameter constraintScaling to 0.078125
TCL: Running for 5000 steps
ETITLE: TS BOND ANGLE DIHED IMPRP ELECT VDW BOUNDARY MISC KINETIC TOTAL TEMP POTENTIAL TOTAL3 TEMPAVG PRESSURE GPRESSURE VOLUME PRESSAVG GPRESSAVG
ENERGY: 35000 1560.0584 2430.7460 3211.3531 0.0000 -175898.4837 19999.7468 102.2391 0.0000 30661.5436 -117932.7968 298.1131 -148594.3404 -117889.2028 298.1131 -169.2579 -111.6364 496689.2688 -169.2579 -111.6364
ENERGY: 36000 1547.9236 2378.2499 3218.1834 0.0000 -175956.3429 20185.9643 144.5244 0.0000 30824.3874 -117657.1100 299.6964 -148481.4974 -117610.2539 299.2961 66.3197 117.4716 496941.6362 5.8033 6.2342
ENERGY: 37000 1581.1497 2418.0625 3246.8027 0.0000 -175678.8273 19999.4351 159.6889 0.0000 30953.4359 -117320.2525 300.9511 -148273.6883 -117270.7024 300.0325 -70.6306 -92.6350 497764.7554 -5.1160 -4.7927
ENERGY: 38000 1652.3571 2370.0073 3218.7326 0.0000 -175850.8270 19988.9052 148.9321 0.0000 31043.2133 -117428.6792 301.8240 -148471.8926 -117383.2640 300.8297 9.9235 -2.9201 496583.8501 -0.7685 -1.0167
ENERGY: 39000 1592.8003 2342.5710 3186.0466 0.0000 -175646.3612 19897.9308 152.8660 0.0000 30874.2131 -117599.9334 300.1809 -148474.1465 -117552.5104 300.0891 49.5571 48.5376 498497.9058 2.1549 2.1052
ENERGY: 40000 1695.8578 2417.4420 3248.5197 0.0000 -175808.6567 19931.9542 159.4114 0.0000 30859.3835 -117496.0880 300.0367 -148355.4716 -117450.7172 300.8104 2.0602 63.8957 496271.2974 -15.8476 -15.5029
TCL: Setting parameter constraintScaling to 0.0390625
TCL: Running for 5000 steps
ETITLE: TS BOND ANGLE DIHED IMPRP ELECT VDW BOUNDARY MISC KINETIC TOTAL TEMP POTENTIAL TOTAL3 TEMPAVG PRESSURE GPRESSURE VOLUME PRESSAVG GPRESSAVG
ENERGY: 40000 1695.8578 2417.4420 3248.5197 0.0000 -175808.6567 19931.9542 79.7057 0.0000 30857.3515 -117577.8257 300.0169 -148435.1773 -117536.5303 300.0169 -25.0245 44.3716 496271.2974 -25.0245 44.3716
ENERGY: 41000 1641.1305 2446.8670 3252.0457 0.0000 -175834.8141 20124.2425 108.7983 0.0000 30578.7743 -117682.9557 297.3084 -148261.7300 -117635.3380 299.1297 -26.4312 76.6950 496636.0023 6.1366 5.5687
ENERGY: 42000 1632.9790 2310.5439 3216.3154 0.0000 -175863.3323 20046.8117 114.0472 0.0000 30877.0732 -117665.5620 300.2087 -148542.6352 -117624.4703 299.7405 -113.4682 -37.7346 496796.8294 -9.8199 -9.8070
ENERGY: 43000 1606.6359 2448.3693 3184.5394 0.0000 -176174.1258 20124.8417 120.1200 0.0000 31015.5151 -117674.1044 301.5547 -148689.6194 -117627.2476 299.1951 -65.6301 -35.2791 497119.5379 6.3928 5.3582
ENERGY: 44000 1687.0207 2419.7421 3223.1806 0.0000 -176174.9126 20067.2074 111.8422 0.0000 30900.4771 -117765.4425 300.4362 -148665.9196 -117731.0636 299.3635 -89.7348 -34.6307 497546.3417 -0.8907 -1.0064
ENERGY: 45000 1644.8289 2383.7722 3200.0943 0.0000 -175919.3148 20104.4336 119.4165 0.0000 30699.3984 -117767.3710 298.4812 -148466.7694 -117718.6134 299.5595 -79.3849 -61.6403 498859.8910 11.0931 10.9758
TCL: Setting parameter constraintScaling to 0.01953125
TCL: Running for 5000 steps
ETITLE: TS BOND ANGLE DIHED IMPRP ELECT VDW BOUNDARY MISC KINETIC TOTAL TEMP POTENTIAL TOTAL3 TEMPAVG PRESSURE GPRESSURE VOLUME PRESSAVG GPRESSAVG
ENERGY: 45000 1644.8289 2383.7722 3200.0943 0.0000 -175919.3148 20104.4336 59.7082 0.0000 30697.3194 -117829.1582 298.4610 -148526.4776 -117786.7317 298.4610 -89.9975 -69.1429 498859.8910 -89.9975 -69.1429
ENERGY: 46000 1654.5820 2399.9505 3210.5164 0.0000 -176407.8485 20374.4126 77.6615 0.0000 30856.7332 -117833.9924 300.0109 -148690.7256 -117780.9953 299.0395 -21.0646 60.0070 498722.5160 17.0185 16.7165
ENERGY: 47000 1623.5097 2491.5722 3190.1916 0.0000 -176353.1040 20243.5177 85.7529 0.0000 30924.5944 -117793.9655 300.6707 -148718.5600 -117743.6159 298.8803 -81.2899 -44.0156 497080.5054 -7.0155 -6.7399
ENERGY: 48000 1606.3940 2377.5304 3190.7895 0.0000 -175700.5035 20087.4676 86.2906 0.0000 30688.1844 -117663.8471 298.3722 -148352.0314 -117618.3077 299.5908 112.8336 142.4100 495934.2488 -2.2787 -1.9932
ENERGY: 49000 1620.8191 2366.1508 3169.6444 0.0000 -175963.8849 20028.8061 93.6024 0.0000 30967.2864 -117717.5757 301.0858 -148684.8620 -117673.8415 300.6455 -54.8811 -67.7680 495729.3354 -11.1071 -10.8847
ENERGY: 50000 1566.8296 2457.9856 3154.1513 0.0000 -176108.2137 20034.3614 84.1613 0.0000 30868.9548 -117941.7696 300.1297 -148810.7244 -117884.3935 299.8203 -40.0558 54.0048 495063.4291 6.7801 6.3430
TCL: Setting parameter constraintScaling to 0
TCL: Running for 5000 steps
ETITLE: TS BOND ANGLE DIHED IMPRP ELECT VDW BOUNDARY MISC KINETIC TOTAL TEMP POTENTIAL TOTAL3 TEMPAVG PRESSURE GPRESSURE VOLUME PRESSAVG GPRESSAVG
ENERGY: 50000 1566.8296 2457.9856 3154.1513 0.0000 -176108.2137 20034.3614 0.0000 0.0000 30866.9400 -118027.9457 300.1101 -148894.8857 -117979.7437 300.1101 -61.3282 29.7232 495063.4291 -61.3282 29.7232
ENERGY: 51000 1640.5027 2372.9105 3169.6481 0.0000 -176120.0821 19957.4369 0.0000 0.0000 31029.6783 -117949.9056 301.6924 -148979.5839 -117907.3233 299.4808 -69.5155 -58.0088 494282.6089 2.6654 2.9486
ENERGY: 52000 1599.2817 2430.6948 3203.6118 0.0000 -175762.1424 19746.2511 0.0000 0.0000 30822.0964 -117960.2066 299.6741 -148782.3030 -117927.0395 299.2653 -60.7047 -55.4285 495891.9822 -0.4078 0.0802
ENERGY: 53000 1595.3317 2361.3163 3240.5100 0.0000 -175939.2578 20136.2699 0.0000 0.0000 30940.5155 -117665.3144 300.8255 -148605.8299 -117618.4872 299.9406 7.4972 36.9850 496017.7564 0.9078 0.9420
ENERGY: 54000 1663.6838 2427.1687 3196.8083 0.0000 -176068.6440 20145.3214 0.0000 0.0000 30724.1145 -117911.5474 298.7215 -148635.6618 -117859.6482 300.3711 -141.5733 -29.6820 494870.6462 -11.4302 -11.8008
ENERGY: 55000 1649.8653 2420.0390 3184.7981 0.0000 -175765.4881 19929.6283 0.0000 0.0000 30668.0485 -117913.1090 298.1764 -148581.1575 -117871.7592 298.7317 -62.3102 10.2237 494831.6906 -10.8844 -10.8567
