Info: SIMULATION PARAMETERS:
Info: TIMESTEP               1
Info: NUMBER OF STEPS        0
Info: STEPS PER CYCLE        10
Info: PERIODIC CELL BASIS 1  72.449 0 0
Info: PERIODIC CELL BASIS 2  0 93.247 0
Info: PERIODIC CELL BASIS 3  0 0 79.185
Info: PERIODIC CELL CENTER   -0.248 -0.156 -0.047
Info: WRAPPING WATERS AROUND PERIODIC BOUNDARIES ON OUTPUT.
Info: WRAPPING ALL CLUSTERS AROUND PERIODIC BOUNDARIES ON OUTPUT.
Info: FIRST LDB TIMESTEP     50
Info: LAST LDB TIMESTEP     -1
Info: HOM BACKGROUND SCALING 1
Info: PME BACKGROUND SCALING 1
Info: MIN ATOMS PER PATCH    40
Info: VELOCITY FILE          ../replicas/rep55/equilibration/eq1.vel
Info: CENTER OF MASS MOVING INITIALLY? NO
Info: DIELECTRIC             1
Info: EXCLUDE                SCALED ONE-FOUR
Info: 1-4 ELECTROSTATICS SCALED BY 0.833333
Info: MODIFIED 1-4 VDW PARAMETERS WILL BE USED
Info: DCD FILENAME           ../replicas/rep55/equilibration/eq2.dcd
Info: DCD FREQUENCY          5000
Info: DCD FIRST STEP         5000
Info: DCD FILE WILL CONTAIN UNIT CELL DATA
Info: XST FILENAME           ../replicas/rep55/equilibration/eq2.xst
Info: XST FREQUENCY          5000
Info: NO VELOCITY DCD OUTPUT
Info: NO FORCE DCD OUTPUT
Info: OUTPUT FILENAME        ../replicas/rep55/equilibration/eq2
Info: RESTART FILENAME       ../replicas/rep55/equilibration/eq2.restart
Info: RESTART FREQUENCY      5000
Info: BINARY RESTART FILES WILL BE USED
Info: SWITCHING ACTIVE
Info: SWITCHING ON           10
Info: SWITCHING OFF          12
Info: PAIRLIST DISTANCE      13.5
Info: PAIRLIST SHRINK RATE   0.01
Info: PAIRLIST GROW RATE     0.01
Info: PAIRLIST TRIGGER       0.3
Info: PAIRLISTS PER CYCLE    2
Info: PAIRLISTS ENABLED
Info: MARGIN                 0.48
Info: HYDROGEN GROUP CUTOFF  2.5
Info: PATCH DIMENSION        16.48
Info: ENERGY OUTPUT STEPS    500
Info: CROSSTERM ENERGY INCLUDED IN DIHEDRAL
Info: TIMING OUTPUT STEPS    5000
Info: PRESSURE OUTPUT STEPS  500
Info: HARMONIC CONSTRAINTS ACTIVE
Info: HARMONIC CONS EXP      2
Info: HARMONIC CONS SCALING  10
Info: LANGEVIN DYNAMICS ACTIVE
Info: LANGEVIN TEMPERATURE   300
Info: LANGEVIN USING BBK INTEGRATOR
Info: LANGEVIN DAMPING COEFFICIENT IS 5 INVERSE PS
Info: LANGEVIN DYNAMICS NOT APPLIED TO HYDROGENS
Info: BERENDSEN PRESSURE COUPLING ACTIVE
Info:     TARGET PRESSURE IS 1 BAR
Info:     COMPRESSIBILITY ESTIMATE IS 4.57e-05 BAR^(-1)
Info:     RELAXATION TIME IS 100 FS
Info:     APPLIED EVERY 2 STEPS
Info:     PRESSURE CONTROL IS GROUP-BASED
Info:       CELL FLUCTUATION IS ISOTROPIC
Info: PARTICLE MESH EWALD (PME) ACTIVE
Info: PME TOLERANCE               1e-06
Info: PME EWALD COEFFICIENT       0.257952
Info: PME INTERPOLATION ORDER     4
Info: PME GRID DIMENSIONS         80 96 80
Info: PME MAXIMUM GRID SPACING    1
Info: FULL ELECTROSTATIC EVALUATION FREQUENCY      2
Info: USING VERLET I (r-RESPA) MTS SCHEME.
Info: C1 SPLITTING OF LONG RANGE ELECTROSTATICS
Info: PLACING ATOMS IN PATCHES BY HYDROGEN GROUPS
Info: RIGID BONDS TO HYDROGEN : WATER
Info:         ERROR TOLERANCE : 1e-05
Info:          MAX ITERATIONS : 100
Info: RIGID WATER USING SETTLE ALGORITHM
Info: RANDOM NUMBER SEED     1503713699
Info: USE HYDROGEN BONDS?    NO
Info: Using AMBER format force field!
Info: AMBER PARM FILE        ../build/complex.top
Info: COORDINATE PDB         ../replicas/rep55/equilibration/eq1.coor
Info: Exclusions in PARM file will be ignored!
Info: SCNB (VDW SCALING)     2
Info: USING ARITHMETIC MEAN TO COMBINE L-J SIGMA PARAMETERS
Info: SUMMARY OF PARAMETERS:
Info: 71 BONDS
Info: 145 ANGLES
Info: 76 DIHEDRAL
Info: 0 IMPROPER
Info: 0 CROSSTERM
Info: 0 VDW
Info: 190 VDW_PAIRS
Info: 0 NBTHOLE_PAIRS
Info: STRUCTURE SUMMARY:
Info: 49394 ATOMS
Info: 49448 BONDS
Info: 8698 ANGLES
Info: 18780 DIHEDRALS
Info: 0 IMPROPERS
Info: 0 CROSSTERMS
Info: 0 EXCLUSIONS
Info: 2336 CONSTRAINTS
Info: 44667 RIGID BONDS
Info: 103515 DEGREES OF FREEDOM
Info: 17225 HYDROGEN GROUPS
Info: 4 ATOMS IN LARGEST HYDROGEN GROUP
Info: 17225 MIGRATION GROUPS
Info: 4 ATOMS IN LARGEST MIGRATION GROUP
Info: TOTAL MASS = 301478 amu
Info: TOTAL CHARGE = 1.00115e-05 e
Info: MASS DENSITY = 0.935846 g/cm^3
Info: ATOM DENSITY = 0.0923345 atoms/A^3
Info: ADDED 70656 IMPLICIT EXCLUSIONS
Info: NONBONDED TABLE R-SQUARED SPACING: 0.0625
Info: NONBONDED TABLE SIZE: 769 POINTS
Info: REMOVING COM VELOCITY -0.00941717 -0.0114136 0.0248796
TCL: Running for 5000 steps
ETITLE: TS BOND ANGLE DIHED IMPRP ELECT VDW BOUNDARY MISC KINETIC TOTAL TEMP POTENTIAL TOTAL3 TEMPAVG PRESSURE GPRESSURE VOLUME PRESSAVG GPRESSAVG
ENERGY: 0 413.6084 1196.7797 2913.1408 0.0000 -212603.6198 29530.5557 0.0000 0.0000 10114.6953 -168434.8400 98.3422 -178549.5353 -168425.1358 98.3422 -2368.0498 -2467.5141 534946.2959 -2368.0498 -2467.5141
ENERGY: 1000 1229.3446 1997.1383 3124.7727 0.0000 -192982.8127 26046.8748 771.9488 0.0000 24029.5568 -135783.1768 233.6323 -159812.7335 -135758.0275 218.7449 25.1715 -3.7916 521785.7729 -17.7875 -17.4789
ENERGY: 2000 1526.8303 2123.4174 3135.7837 0.0000 -183742.5230 23317.3545 805.0669 0.0000 27943.6763 -124890.3940 271.6881 -152834.0703 -124851.0508 264.6519 23.7239 11.9526 515974.8914 -24.4664 -24.7251
ENERGY: 3000 1493.6116 2243.4650 3165.5431 0.0000 -178955.0871 21471.7055 794.6571 0.0000 29371.2021 -120414.9026 285.5675 -149786.1048 -120375.6286 284.6388 -10.3932 6.0078 510255.6121 -18.2694 -17.8359
ENERGY: 4000 1535.2650 2211.4569 3140.2358 0.0000 -176934.7268 20776.0186 813.1313 0.0000 30369.5941 -118089.0251 295.2746 -148458.6192 -118042.7959 293.3117 -83.1228 -4.5668 506245.5100 -28.2112 -28.1894
ENERGY: 5000 1592.8000 2237.5653 3157.0289 0.0000 -175490.1225 20173.3924 782.8191 0.0000 30554.2498 -116992.2670 297.0699 -147546.5168 -116950.3955 297.5011 -156.4230 6.2917 506736.6978 -0.1840 -0.1531
TCL: Setting parameter constraintScaling to 5.0
TCL: Running for 5000 steps
ETITLE: TS BOND ANGLE DIHED IMPRP ELECT VDW BOUNDARY MISC KINETIC TOTAL TEMP POTENTIAL TOTAL3 TEMPAVG PRESSURE GPRESSURE VOLUME PRESSAVG GPRESSAVG
ENERGY: 5000 1592.8000 2237.5653 3157.0289 0.0000 -175490.1225 20173.3924 391.4095 0.0000 30552.2193 -117385.7070 297.0502 -147937.9263 -117341.2671 297.0502 -261.8311 -95.1578 506736.6978 -261.8311 -95.1578
ENERGY: 6000 1636.0574 2283.7099 3160.8273 0.0000 -175526.2247 20180.2259 639.1349 0.0000 30687.8128 -116938.4566 298.3685 -147626.2694 -116904.4953 299.9509 -120.7634 -51.4723 504811.7774 -6.6005 -6.7048
ENERGY: 7000 1629.9255 2278.4599 3157.1087 0.0000 -175435.5098 20139.7026 624.7286 0.0000 30802.4429 -116803.1416 299.4831 -147605.5846 -116749.3131 298.8855 -19.0554 -47.0759 502562.6365 -15.0045 -15.0524
ENERGY: 8000 1603.1683 2280.4715 3182.8606 0.0000 -175579.9043 20151.9136 662.8843 0.0000 30904.5122 -116794.0938 300.4754 -147698.6060 -116752.7520 300.1547 9.6484 4.3624 500721.9144 -14.1936 -14.2797
ENERGY: 9000 1631.3661 2270.7015 3165.6929 0.0000 -175317.5631 19962.3291 649.1941 0.0000 30872.4255 -116765.8540 300.1635 -147638.2795 -116731.0108 299.7845 86.8814 2.0218 502549.4473 12.6042 12.5247
ENERGY: 10000 1601.3639 2327.2335 3166.1484 0.0000 -175828.4987 20289.7080 671.6872 0.0000 30727.1796 -117045.1782 298.7513 -147772.3578 -117000.9366 299.7987 -19.4613 6.9288 499931.7323 -8.2143 -8.4196
TCL: Setting parameter constraintScaling to 2.5
TCL: Running for 5000 steps
ETITLE: TS BOND ANGLE DIHED IMPRP ELECT VDW BOUNDARY MISC KINETIC TOTAL TEMP POTENTIAL TOTAL3 TEMPAVG PRESSURE GPRESSURE VOLUME PRESSAVG GPRESSAVG
ENERGY: 10000 1601.3639 2327.2335 3166.1484 0.0000 -175828.4987 20289.7080 335.8436 0.0000 30725.1209 -117383.0805 298.7313 -148108.2014 -117339.2826 298.7313 -7.9692 7.0879 499931.7323 -7.9692 7.0879
ENERGY: 11000 1616.2516 2309.2495 3197.6060 0.0000 -175745.6081 19968.7454 514.0985 0.0000 30579.8159 -117559.8412 297.3185 -148139.6571 -117506.5858 298.4428 5.7093 -9.0834 499572.3603 -3.4704 -3.0880
ENERGY: 12000 1591.2482 2341.8321 3143.8222 0.0000 -175511.8769 19979.4770 494.9939 0.0000 30717.2010 -117243.3024 298.6543 -147960.5035 -117209.6642 298.2619 -16.9522 -9.1500 499065.8827 -4.4350 -4.1436
ENERGY: 13000 1580.4752 2308.7644 3160.4268 0.0000 -175768.3706 19913.1339 507.0281 0.0000 30718.2760 -117580.2661 298.6647 -148298.5421 -117524.9104 298.4644 -134.7263 -32.3023 499885.6378 14.0333 14.1526
ENERGY: 14000 1585.6602 2282.5138 3198.9533 0.0000 -175512.6743 19945.3970 493.9322 0.0000 30645.8593 -117360.3584 297.9606 -148006.2177 -117320.4651 299.3209 -80.2612 -37.6318 500139.7803 -15.3055 -14.7339
ENERGY: 15000 1612.0594 2391.1267 3167.7195 0.0000 -175471.8379 20108.7330 518.5080 0.0000 30788.8785 -116884.8128 299.3512 -147673.6913 -116833.2398 299.7327 -8.3528 -18.3673 499943.5710 4.0578 4.5963
TCL: Setting parameter constraintScaling to 1.25
TCL: Running for 5000 steps
ETITLE: TS BOND ANGLE DIHED IMPRP ELECT VDW BOUNDARY MISC KINETIC TOTAL TEMP POTENTIAL TOTAL3 TEMPAVG PRESSURE GPRESSURE VOLUME PRESSAVG GPRESSAVG
ENERGY: 15000 1612.0594 2391.1267 3167.7195 0.0000 -175471.8379 20108.7330 259.2540 0.0000 30786.8165 -117146.1288 299.3311 -147932.9453 -117103.6763 299.3311 -51.6589 -51.0803 499943.5710 -51.6589 -51.0803
ENERGY: 16000 1591.6737 2357.9157 3186.4084 0.0000 -176031.6298 20366.6485 388.9326 0.0000 30769.9252 -117370.1258 299.1669 -148140.0510 -117329.2861 298.9538 16.7450 47.1669 500787.0840 11.6948 12.1444
ENERGY: 17000 1646.9353 2316.3641 3231.1015 0.0000 -175575.5681 19990.4873 416.3197 0.0000 30827.1508 -117147.2093 299.7233 -147974.3601 -117094.3580 298.9762 -62.7049 -46.0582 500649.1019 8.9305 8.5532
ENERGY: 18000 1668.8914 2351.0158 3208.7844 0.0000 -175839.4900 20136.0392 406.3925 0.0000 30910.7736 -117157.5931 300.5363 -148068.3667 -117112.1349 300.6444 2.5598 -29.3873 499275.4428 -4.8155 -4.7083
ENERGY: 19000 1619.4911 2396.1180 3184.7452 0.0000 -175248.7456 19862.2108 385.4275 0.0000 30826.6572 -116974.0958 299.7185 -147800.7530 -116932.6951 300.8411 -68.1776 -89.9988 498644.8236 4.2387 4.5729
ENERGY: 20000 1616.7323 2418.8668 3164.6943 0.0000 -175582.7394 19943.8375 411.3836 0.0000 30830.8541 -117196.3708 299.7593 -148027.2250 -117148.0823 300.0345 -63.5615 42.2549 496452.3470 -2.6166 -2.2680
TCL: Setting parameter constraintScaling to 0.625
TCL: Running for 5000 steps
ETITLE: TS BOND ANGLE DIHED IMPRP ELECT VDW BOUNDARY MISC KINETIC TOTAL TEMP POTENTIAL TOTAL3 TEMPAVG PRESSURE GPRESSURE VOLUME PRESSAVG GPRESSAVG
ENERGY: 20000 1616.7323 2418.8668 3164.6943 0.0000 -175582.7394 19943.8375 205.6918 0.0000 30828.8093 -117404.1075 299.7394 -148232.9168 -117359.9513 299.7394 -66.1819 35.2759 496452.3470 -66.1819 35.2759
ENERGY: 21000 1637.7822 2416.8161 3159.8214 0.0000 -176032.2993 20310.7064 311.4755 0.0000 30785.1642 -117410.5335 299.3151 -148195.6977 -117368.1886 300.1413 146.1194 97.0425 497407.6713 6.5779 6.6225
ENERGY: 22000 1697.9881 2369.9379 3213.2872 0.0000 -175846.6172 19994.9337 299.0445 0.0000 30506.3924 -117765.0334 296.6046 -148271.4259 -117722.4185 298.9680 -210.1651 -47.7499 496379.1011 -0.2183 -0.2027
ENERGY: 23000 1629.0494 2384.5729 3185.9987 0.0000 -175937.4754 19973.6481 295.3982 0.0000 30726.5755 -117742.2326 298.7454 -148468.8081 -117700.3859 299.3042 -171.2265 -41.9000 498005.9965 5.5204 5.8126
ENERGY: 24000 1609.4926 2396.0086 3191.1827 0.0000 -175843.1086 19983.0578 330.5620 0.0000 30796.8610 -117535.9440 299.4288 -148332.8049 -117484.5827 298.8498 -10.3354 17.8755 497849.6895 0.5673 1.2650
ENERGY: 25000 1546.9659 2422.6402 3203.2034 0.0000 -175999.9948 20126.0643 328.8936 0.0000 30885.5659 -117486.6614 300.2912 -148372.2273 -117441.0107 299.6762 -29.2633 24.1199 497870.4231 -6.0386 -6.2901
TCL: Setting parameter constraintScaling to 0.3125
TCL: Running for 5000 steps
ETITLE: TS BOND ANGLE DIHED IMPRP ELECT VDW BOUNDARY MISC KINETIC TOTAL TEMP POTENTIAL TOTAL3 TEMPAVG PRESSURE GPRESSURE VOLUME PRESSAVG GPRESSAVG
ENERGY: 25000 1546.9659 2422.6402 3203.2034 0.0000 -175999.9947 20126.0643 164.4468 0.0000 30883.5453 -117653.1288 300.2716 -148536.6741 -117608.5846 300.2716 -41.5664 15.4417 497870.4231 -41.5664 15.4417
ENERGY: 26000 1667.9752 2355.9555 3245.9440 0.0000 -175763.6542 20032.5909 258.9093 0.0000 30865.0786 -117337.2007 300.0920 -148202.2793 -117295.9521 299.3987 -76.9306 -35.5863 498153.0910 -1.1466 -1.5143
ENERGY: 27000 1600.3234 2437.7761 3234.9520 0.0000 -175624.7469 19915.9559 258.2054 0.0000 31071.2757 -117106.2583 302.0968 -148177.5340 -117054.6025 300.8509 -94.7236 -3.5389 497149.5629 -13.0360 -12.3283
ENERGY: 28000 1726.0688 2442.7140 3215.9578 0.0000 -176386.3962 20607.4133 253.6562 0.0000 30906.0052 -117234.5810 300.4900 -148140.5863 -117186.4987 300.1372 105.7373 160.6905 497392.6619 3.3643 3.5397
ENERGY: 29000 1636.1443 2351.5239 3233.0014 0.0000 -176059.2098 20124.3896 238.1180 0.0000 30885.1020 -117590.9306 300.2867 -148476.0325 -117547.3122 300.3285 -151.7612 -102.3249 498079.6675 -2.9470 -2.6415
ENERGY: 30000 1626.6030 2437.4238 3191.2184 0.0000 -176216.6472 20161.7186 244.7169 0.0000 30834.3641 -117720.6025 299.7934 -148554.9665 -117676.3011 298.9463 -25.7874 3.9367 497760.7127 -2.4928 -2.6408
TCL: Setting parameter constraintScaling to 0.15625
TCL: Running for 5000 steps
ETITLE: TS BOND ANGLE DIHED IMPRP ELECT VDW BOUNDARY MISC KINETIC TOTAL TEMP POTENTIAL TOTAL3 TEMPAVG PRESSURE GPRESSURE VOLUME PRESSAVG GPRESSAVG
ENERGY: 30000 1626.6030 2437.4238 3191.2184 0.0000 -176216.6472 20161.7186 122.3585 0.0000 30832.2929 -117845.0321 299.7733 -148677.3250 -117800.9154 299.7733 -40.7758 -11.1101 497760.7127 -40.7758 -11.1101
ENERGY: 31000 1635.2303 2438.1609 3203.0816 0.0000 -176177.1729 20159.3695 189.1563 0.0000 30933.7452 -117618.4291 300.7597 -148552.1743 -117575.4826 298.6671 -124.1842 -53.0573 497050.0402 -2.0376 -2.4456
ENERGY: 32000 1650.0110 2348.5631 3215.3887 0.0000 -175773.3705 19975.6152 201.2684 0.0000 31032.8064 -117349.7177 301.7228 -148382.5242 -117302.8546 299.3657 10.2211 46.1117 497539.5796 9.6984 9.6032
ENERGY: 33000 1558.3514 2412.5380 3238.6303 0.0000 -175624.8250 20223.4301 197.1080 0.0000 30694.3852 -117300.3820 298.4324 -147994.7672 -117244.9877 299.7816 54.6175 60.4959 497107.5162 0.2734 -0.1559
ENERGY: 34000 1673.5808 2383.2886 3210.1682 0.0000 -175566.5785 19976.2581 205.2803 0.0000 30638.4375 -117479.5651 297.8885 -148118.0026 -117431.3844 298.9499 -82.0167 42.5338 497638.8767 10.8200 11.1499
ENERGY: 35000 1591.7142 2459.9371 3201.7617 0.0000 -175964.6684 20131.9490 208.1266 0.0000 30734.9451 -117636.2345 298.8268 -148371.1796 -117590.2615 299.2031 -96.2646 24.6572 497374.6586 0.2534 0.3258
TCL: Setting parameter constraintScaling to 0.078125
TCL: Running for 5000 steps
ETITLE: TS BOND ANGLE DIHED IMPRP ELECT VDW BOUNDARY MISC KINETIC TOTAL TEMP POTENTIAL TOTAL3 TEMPAVG PRESSURE GPRESSURE VOLUME PRESSAVG GPRESSAVG
ENERGY: 35000 1591.7142 2459.9371 3201.7617 0.0000 -175964.6684 20131.9490 104.0633 0.0000 30732.9010 -117742.3420 298.8069 -148475.2430 -117699.8758 298.8069 -130.8888 1.6348 497374.6586 -130.8888 1.6348
ENERGY: 36000 1629.6032 2420.0215 3187.1329 0.0000 -175966.7647 19975.7995 147.9344 0.0000 31009.9775 -117596.2957 301.5009 -148606.2732 -117558.1019 299.2500 -123.1577 -58.6287 495807.5511 -5.9515 -6.0950
ENERGY: 37000 1612.0870 2384.7458 3216.3578 0.0000 -176167.8492 20182.6568 148.5704 0.0000 30788.5358 -117834.8957 299.3478 -148623.4314 -117792.8291 298.3285 -55.4153 -53.9022 497160.5770 11.8123 11.7410
ENERGY: 38000 1643.9624 2403.8478 3208.2800 0.0000 -176111.2226 20254.7110 159.9759 0.0000 30706.0046 -117734.4409 298.5454 -148440.4455 -117680.0761 298.7656 -65.0514 18.3319 497041.0415 -6.3901 -6.9649
ENERGY: 39000 1593.3752 2384.7911 3219.0899 0.0000 -175711.2704 19944.2934 155.7207 0.0000 30787.5658 -117626.4342 299.3384 -148414.0000 -117581.2530 299.0088 20.3841 -35.8397 498165.7357 6.1237 6.1454
ENERGY: 40000 1608.5605 2364.3664 3213.4671 0.0000 -175928.3099 19984.4027 170.2532 0.0000 30835.4814 -117751.7785 299.8043 -148587.2599 -117703.1859 298.9240 29.4669 3.8357 497210.0752 -7.2323 -6.9028
TCL: Setting parameter constraintScaling to 0.0390625
TCL: Running for 5000 steps
ETITLE: TS BOND ANGLE DIHED IMPRP ELECT VDW BOUNDARY MISC KINETIC TOTAL TEMP POTENTIAL TOTAL3 TEMPAVG PRESSURE GPRESSURE VOLUME PRESSAVG GPRESSAVG
ENERGY: 40000 1608.5605 2364.3664 3213.4671 0.0000 -175928.3099 19984.4027 85.1266 0.0000 30833.4332 -117838.9533 299.7844 -148672.3865 -117797.2878 299.7844 -3.4581 -28.8709 497210.0752 -3.4581 -28.8709
ENERGY: 41000 1606.7239 2359.8232 3237.4048 0.0000 -175731.7735 19964.7143 107.5240 0.0000 30761.6626 -117693.9207 299.0866 -148455.5833 -117649.4973 299.2310 -23.2719 -38.3547 498255.6688 12.5165 12.4040
ENERGY: 42000 1692.7771 2395.8839 3199.0485 0.0000 -175846.2223 20178.3504 126.8892 0.0000 30829.6049 -117423.6683 299.7471 -148253.2732 -117377.5297 300.3974 30.7778 33.6154 498186.3592 3.6158 4.0976
ENERGY: 43000 1650.0754 2357.3221 3245.8117 0.0000 -175943.4652 20052.7129 129.9395 0.0000 30746.5229 -117761.0808 298.9394 -148507.6037 -117714.5659 299.1941 -176.6725 -63.1270 497149.2371 -4.4926 -3.9624
ENERGY: 44000 1619.9360 2428.7612 3215.0544 0.0000 -175704.9143 20037.5150 128.0155 0.0000 30798.9330 -117476.6992 299.4489 -148275.6322 -117426.4472 299.9941 26.9410 45.7719 497585.1566 -4.5606 -4.5094
ENERGY: 45000 1645.4193 2418.4305 3208.8557 0.0000 -176399.7189 20318.1182 129.5469 0.0000 30810.3353 -117869.0131 299.5598 -148679.3484 -117828.6186 299.1369 -78.8382 25.0303 497223.7729 -4.9420 -4.1935
TCL: Setting parameter constraintScaling to 0.01953125
TCL: Running for 5000 steps
ETITLE: TS BOND ANGLE DIHED IMPRP ELECT VDW BOUNDARY MISC KINETIC TOTAL TEMP POTENTIAL TOTAL3 TEMPAVG PRESSURE GPRESSURE VOLUME PRESSAVG GPRESSAVG
ENERGY: 45000 1645.4193 2418.4305 3208.8557 0.0000 -176399.7189 20318.1182 64.7734 0.0000 30808.3193 -117935.8025 299.5402 -148744.1218 -117892.0563 299.5402 -74.6055 22.5681 497223.7729 -74.6055 22.5681
ENERGY: 46000 1644.8139 2436.5050 3224.8879 0.0000 -176239.0421 20324.0324 76.4142 0.0000 30844.6641 -117687.7248 299.8936 -148532.3888 -117650.4992 299.7304 -2.4843 15.9307 499063.9092 10.8395 10.9008
ENERGY: 47000 1557.1450 2441.1270 3201.4572 0.0000 -176207.4700 20319.1019 83.4473 0.0000 30846.9029 -117758.2888 299.9153 -148605.1917 -117713.0504 299.3597 75.6373 9.3451 499639.5783 10.7897 10.5965
ENERGY: 48000 1658.3838 2404.4471 3170.0165 0.0000 -175984.4740 20196.2997 85.5837 0.0000 30663.4531 -117806.2902 298.1317 -148469.7433 -117755.3593 298.7454 113.6496 48.9934 498109.6061 0.4291 0.0907
ENERGY: 49000 1644.9594 2456.3083 3206.6790 0.0000 -175992.5814 20218.1033 88.1228 0.0000 30701.0114 -117677.3973 298.4969 -148378.4087 -117637.9517 299.0513 44.7618 41.1619 497421.2986 9.8848 10.2849
ENERGY: 50000 1630.0407 2445.3877 3239.0106 0.0000 -175529.8487 19970.9281 95.2995 0.0000 30724.2599 -117424.9222 298.7229 -148149.1821 -117389.2529 298.8370 -69.0350 -22.0040 497235.7212 8.1509 8.2165
TCL: Setting parameter constraintScaling to 0
TCL: Running for 5000 steps
ETITLE: TS BOND ANGLE DIHED IMPRP ELECT VDW BOUNDARY MISC KINETIC TOTAL TEMP POTENTIAL TOTAL3 TEMPAVG PRESSURE GPRESSURE VOLUME PRESSAVG GPRESSAVG
ENERGY: 50000 1630.0407 2445.3877 3239.0106 0.0000 -175529.8487 19970.9281 0.0000 0.0000 30722.2370 -117522.2446 298.7032 -148244.4816 -117482.0387 298.7032 -74.1035 -25.7370 497235.7212 -74.1035 -25.7370
ENERGY: 51000 1651.6309 2450.4848 3190.2456 0.0000 -175757.6733 20000.7407 0.0000 0.0000 30923.7581 -117540.8131 300.6626 -148464.5713 -117498.6858 300.3642 -14.0099 9.3983 497858.4903 12.1454 11.7022
ENERGY: 52000 1627.9652 2403.0677 3194.0944 0.0000 -175881.2032 20043.2597 0.0000 0.0000 30864.1055 -117748.7106 300.0826 -148612.8161 -117694.1091 300.3593 -43.0429 -4.1319 495899.9739 -4.6673 -4.1357
ENERGY: 53000 1595.7557 2445.2465 3218.8453 0.0000 -175568.7141 20150.7885 0.0000 0.0000 30689.4517 -117468.6262 298.3845 -148158.0780 -117425.9131 300.0543 63.3730 92.1061 497905.9778 10.6786 10.8070
ENERGY: 54000 1562.9900 2380.0173 3203.7083 0.0000 -175793.6594 20118.4445 0.0000 0.0000 30915.8744 -117612.6248 300.5859 -148528.4992 -117562.8593 299.9730 36.0374 47.9525 497607.6550 7.3956 7.8802
ENERGY: 55000 1654.6887 2404.3215 3190.2539 0.0000 -175682.1892 19944.7305 0.0000 0.0000 31005.1709 -117483.0237 301.4541 -148488.1946 -117435.4980 300.1696 -60.5025 -31.3913 496620.8992 -15.8605 -16.2957
