Info: SIMULATION PARAMETERS:
Info: TIMESTEP               2
Info: NUMBER OF STEPS        0
Info: STEPS PER CYCLE        10
Info: PERIODIC CELL BASIS 1  72.449 0 0
Info: PERIODIC CELL BASIS 2  0 93.247 0
Info: PERIODIC CELL BASIS 3  0 0 79.185
Info: PERIODIC CELL CENTER   -0.248 -0.156 -0.047
Info: WRAPPING WATERS AROUND PERIODIC BOUNDARIES ON OUTPUT.
Info: WRAPPING ALL CLUSTERS AROUND PERIODIC BOUNDARIES ON OUTPUT.
Info: FIRST LDB TIMESTEP     50
Info: LAST LDB TIMESTEP     -1
Info: HOM BACKGROUND SCALING 1
Info: PME BACKGROUND SCALING 1
Info: MIN ATOMS PER PATCH    40
Info: INITIAL TEMPERATURE    0
Info: CENTER OF MASS MOVING INITIALLY? NO
Info: DIELECTRIC             1
Info: EXCLUDE                SCALED ONE-FOUR
Info: 1-4 ELECTROSTATICS SCALED BY 0.833333
Info: MODIFIED 1-4 VDW PARAMETERS WILL BE USED
Info: NO DCD TRAJECTORY OUTPUT
Info: NO EXTENDED SYSTEM TRAJECTORY OUTPUT
Info: NO VELOCITY DCD OUTPUT
Info: NO FORCE DCD OUTPUT
Info: OUTPUT FILENAME        ../replicas/rep64/equilibration/eq0
Info: NO RESTART FILE
Info: SWITCHING ACTIVE
Info: SWITCHING ON           10
Info: SWITCHING OFF          12
Info: PAIRLIST DISTANCE      13.5
Info: PAIRLIST SHRINK RATE   0.01
Info: PAIRLIST GROW RATE     0.01
Info: PAIRLIST TRIGGER       0.3
Info: PAIRLISTS PER CYCLE    2
Info: PAIRLISTS ENABLED
Info: MARGIN                 0
Info: HYDROGEN GROUP CUTOFF  2.5
Info: PATCH DIMENSION        16
Info: ENERGY OUTPUT STEPS    500
Info: CROSSTERM ENERGY INCLUDED IN DIHEDRAL
Info: TIMING OUTPUT STEPS    5000
Info: PRESSURE OUTPUT STEPS  500
Info: HARMONIC CONSTRAINTS ACTIVE
Info: HARMONIC CONS EXP      2
Info: HARMONIC CONS SCALING  10
Info: CONJUGATE GRADIENT MINIMIZATION ACTIVE
Info: LINE MINIMIZATION GOAL = 0.001
Info: BABY STEP SIZE = 0.01
Info: TINY STEP SIZE = 1e-06
Info: PARTICLE MESH EWALD (PME) ACTIVE
Info: PME TOLERANCE               1e-06
Info: PME EWALD COEFFICIENT       0.257952
Info: PME INTERPOLATION ORDER     4
Info: PME GRID DIMENSIONS         80 96 80
Info: PME MAXIMUM GRID SPACING    1
Info: FULL ELECTROSTATIC EVALUATION FREQUENCY      2
Info: USING VERLET I (r-RESPA) MTS SCHEME.
Info: C1 SPLITTING OF LONG RANGE ELECTROSTATICS
Info: PLACING ATOMS IN PATCHES BY HYDROGEN GROUPS
Info: RIGID BONDS TO HYDROGEN : ALL
Info:         ERROR TOLERANCE : 1e-05
Info:          MAX ITERATIONS : 100
Info: RIGID WATER USING SETTLE ALGORITHM
Info: RANDOM NUMBER SEED     1503691534
Info: USE HYDROGEN BONDS?    NO
Info: Using AMBER format force field!
Info: AMBER PARM FILE        ../build/complex.top
Info: COORDINATE PDB         ../build/complex.pdb
Info: Exclusions in PARM file will be ignored!
Info: SCNB (VDW SCALING)     2
Info: USING ARITHMETIC MEAN TO COMBINE L-J SIGMA PARAMETERS
Info: SUMMARY OF PARAMETERS:
Info: 71 BONDS
Info: 145 ANGLES
Info: 76 DIHEDRAL
Info: 0 IMPROPER
Info: 0 CROSSTERM
Info: 0 VDW
Info: 190 VDW_PAIRS
Info: 0 NBTHOLE_PAIRS
Info: STRUCTURE SUMMARY:
Info: 49394 ATOMS
Info: 49448 BONDS
Info: 8698 ANGLES
Info: 18780 DIHEDRALS
Info: 0 IMPROPERS
Info: 0 CROSSTERMS
Info: 0 EXCLUSIONS
Info: 2336 CONSTRAINTS
Info: 47058 RIGID BONDS
Info: 101124 DEGREES OF FREEDOM
Info: 17225 HYDROGEN GROUPS
Info: 4 ATOMS IN LARGEST HYDROGEN GROUP
Info: 17225 MIGRATION GROUPS
Info: 4 ATOMS IN LARGEST MIGRATION GROUP
Info: TOTAL MASS = 301478 amu
Info: TOTAL CHARGE = 1.00115e-05 e
Info: MASS DENSITY = 0.935846 g/cm^3
Info: ATOM DENSITY = 0.0923345 atoms/A^3
Info: ADDED 70656 IMPLICIT EXCLUSIONS
Info: NONBONDED TABLE R-SQUARED SPACING: 0.0625
Info: NONBONDED TABLE SIZE: 769 POINTS
Info: REMOVING COM VELOCITY 0 0 0
TCL: Minimizing for 100 steps
ETITLE: TS BOND ANGLE DIHED IMPRP ELECT VDW BOUNDARY MISC KINETIC TOTAL TEMP POTENTIAL TOTAL3 TEMPAVG PRESSURE GPRESSURE VOLUME PRESSAVG GPRESSAVG
ENERGY: 0 155.4176 1012.2698 2855.7272 0.0000 -154496.7911 207729.2052 0.0468 0.0000 0.0000 57255.8755 0.0000 57255.8755 57255.8755 0.0000 116350.2532 86546.1670 534946.2959 116350.2532 86546.1670
ENERGY: 20 304.7555 935.7912 2893.4663 0.0000 -158672.9409 17936.6592 143.9454 0.0000 0.0000 -136458.3232 0.0000 -136458.3232 -136458.3232 0.0000 16523.9385 -239.4560 534946.2959 16523.9385 -239.4560
ENERGY: 40 198.7453 799.5729 2896.9273 0.0000 -162811.4528 16417.9537 221.3030 0.0000 0.0000 -142276.9505 0.0000 -142276.9505 -142276.9505 0.0000 15011.2703 -2135.4698 534946.2959 15011.2703 -2135.4698
ENERGY: 60 130.5282 715.3440 2898.2166 0.0000 -167496.1572 15446.7539 315.2796 0.0000 0.0000 -147990.0349 0.0000 -147990.0349 -147990.0349 0.0000 13793.8836 -3799.3988 534946.2959 13793.8836 -3799.3988
ENERGY: 80 431.2730 765.6307 2904.3787 0.0000 -169937.5339 15121.1518 372.0123 0.0000 0.0000 -150343.0874 0.0000 -150343.0874 -150343.0874 0.0000 13270.3297 -4577.2463 534946.2959 13270.3297 -4577.2463
ENERGY: 100 129.7132 708.0646 2904.2781 0.0000 -171050.0666 15018.6535 384.2001 0.0000 0.0000 -151905.1571 0.0000 -151905.1571 -151905.1571 0.0000 13092.9127 -4843.6314 534946.2959 13092.9127 -4843.6314
TCL: Setting parameter constraintScaling to 5.0
TCL: Minimizing for 100 steps
ETITLE: TS BOND ANGLE DIHED IMPRP ELECT VDW BOUNDARY MISC KINETIC TOTAL TEMP POTENTIAL TOTAL3 TEMPAVG PRESSURE GPRESSURE VOLUME PRESSAVG GPRESSAVG
ENERGY: 100 129.7132 708.0646 2904.2781 0.0000 -171050.0666 15018.6535 192.1000 0.0000 0.0000 -152097.2571 0.0000 -152097.2571 -152097.2571 0.0000 13703.5079 -22944.4547 534946.2959 13703.5079 -22944.4547
ENERGY: 120 118.6819 680.2875 2909.9066 0.0000 -172396.3123 14830.1206 259.9549 0.0000 0.0000 -153597.3608 0.0000 -153597.3608 -153597.3608 0.0000 13320.9477 -4756.3068 534946.2959 13320.9477 -4756.3068
ENERGY: 140 109.1480 671.1469 2912.0863 0.0000 -174830.2503 14716.1440 337.7304 0.0000 0.0000 -156083.9947 0.0000 -156083.9947 -156083.9947 0.0000 12908.9606 -5423.1435 534946.2959 12908.9606 -5423.1435
ENERGY: 160 302.9927 691.2585 2915.1768 0.0000 -176082.5678 14739.2639 369.8380 0.0000 0.0000 -157064.0380 0.0000 -157064.0380 -157064.0380 0.0000 12780.5538 -5679.9855 534946.2959 12780.5538 -5679.9855
ENERGY: 180 182.1858 640.7530 2917.0633 0.0000 -177289.4055 14805.0566 391.8971 0.0000 0.0000 -158352.4498 0.0000 -158352.4498 -158352.4498 0.0000 12715.3612 -5869.1461 534946.2959 12715.3612 -5869.1461
ENERGY: 200 200.8280 672.8121 2923.8871 0.0000 -179262.9825 15029.6681 438.8825 0.0000 0.0000 -159996.9047 0.0000 -159996.9047 -159996.9047 0.0000 12652.1213 -6145.7594 534946.2959 12652.1213 -6145.7594
TCL: Setting parameter constraintScaling to 2.5
TCL: Minimizing for 100 steps
ETITLE: TS BOND ANGLE DIHED IMPRP ELECT VDW BOUNDARY MISC KINETIC TOTAL TEMP POTENTIAL TOTAL3 TEMPAVG PRESSURE GPRESSURE VOLUME PRESSAVG GPRESSAVG
ENERGY: 200 200.8280 672.8121 2923.8871 0.0000 -179262.9825 15029.6681 219.4413 0.0000 0.0000 -160216.3460 0.0000 -160216.3460 -160216.3460 0.0000 13194.5887 -25230.7821 534946.2959 13194.5887 -25230.7821
ENERGY: 220 129.4328 648.4164 2922.2167 0.0000 -180050.4514 15072.5868 269.1046 0.0000 0.0000 -161008.6940 0.0000 -161008.6940 -161008.6940 0.0000 13073.4267 -5819.5028 534946.2959 13073.4267 -5819.5028
ENERGY: 240 148.6941 630.0429 2922.2769 0.0000 -182011.1302 15361.2962 366.0665 0.0000 0.0000 -162582.7536 0.0000 -162582.7536 -162582.7536 0.0000 12907.0226 -6172.1759 534946.2959 12907.0226 -6172.1759
ENERGY: 260 225.6607 662.3384 2925.6698 0.0000 -183827.6302 15792.1654 453.4655 0.0000 0.0000 -163768.3303 0.0000 -163768.3303 -163768.3303 0.0000 12946.2411 -6345.1091 534946.2959 12946.2411 -6345.1091
ENERGY: 280 140.4624 642.1947 2925.4929 0.0000 -185410.6120 16324.4666 513.5090 0.0000 0.0000 -164864.4863 0.0000 -164864.4863 -164864.4863 0.0000 13087.3680 -6365.0216 534946.2959 13087.3680 -6365.0216
ENERGY: 300 147.1929 677.1640 2921.4780 0.0000 -186145.9992 16559.8349 447.0151 0.0000 0.0000 -165393.3143 0.0000 -165393.3143 -165393.3143 0.0000 13324.7607 -6219.3987 534946.2959 13324.7607 -6219.3987
TCL: Setting parameter constraintScaling to 1.25
TCL: Minimizing for 100 steps
ETITLE: TS BOND ANGLE DIHED IMPRP ELECT VDW BOUNDARY MISC KINETIC TOTAL TEMP POTENTIAL TOTAL3 TEMPAVG PRESSURE GPRESSURE VOLUME PRESSAVG GPRESSAVG
ENERGY: 300 147.1929 677.1640 2921.4780 0.0000 -186145.9992 16559.8349 223.5076 0.0000 0.0000 -165616.8218 0.0000 -165616.8218 -165616.8218 0.0000 13757.4577 -26253.8274 534946.2959 13757.4577 -26253.8274
ENERGY: 320 133.2413 650.1522 2927.2200 0.0000 -186697.2410 16635.2515 279.1919 0.0000 0.0000 -166072.1841 0.0000 -166072.1841 -166072.1841 0.0000 13630.0306 -5969.4268 534946.2959 13630.0306 -5969.4268
ENERGY: 340 420.2710 722.5313 2905.9084 0.0000 -187952.7789 17043.6681 316.7829 0.0000 0.0000 -166543.6172 0.0000 -166543.6172 -166543.6172 0.0000 13738.3107 -5989.8434 534946.2959 13738.3107 -5989.8434
ENERGY: 360 145.2720 650.6171 2903.4791 0.0000 -189021.0396 17352.6005 371.2269 0.0000 0.0000 -167597.8439 0.0000 -167597.8439 -167597.8439 0.0000 13848.1386 -6034.4917 534946.2959 13848.1386 -6034.4917
ENERGY: 380 204.1546 682.3864 2915.9389 0.0000 -189799.1125 17626.1907 379.5207 0.0000 0.0000 -167990.9212 0.0000 -167990.9212 -167990.9212 0.0000 13936.6513 -6035.9955 534946.2959 13936.6513 -6035.9955
ENERGY: 400 152.8295 637.2643 2902.7119 0.0000 -191244.6188 18222.6664 365.8994 0.0000 0.0000 -168963.2473 0.0000 -168963.2473 -168963.2473 0.0000 14280.1330 -5844.5274 534946.2959 14280.1330 -5844.5274
TCL: Setting parameter constraintScaling to 0.625
TCL: Minimizing for 100 steps
ETITLE: TS BOND ANGLE DIHED IMPRP ELECT VDW BOUNDARY MISC KINETIC TOTAL TEMP POTENTIAL TOTAL3 TEMPAVG PRESSURE GPRESSURE VOLUME PRESSAVG GPRESSAVG
ENERGY: 400 152.8295 637.2643 2902.7119 0.0000 -191244.6188 18222.6664 182.9497 0.0000 0.0000 -169146.1970 0.0000 -169146.1970 -169146.1970 0.0000 14568.7512 -26660.2671 534946.2959 14568.7512 -26660.2671
ENERGY: 420 153.1436 661.5306 2901.4399 0.0000 -191623.8346 18292.1571 220.4310 0.0000 0.0000 -169395.1324 0.0000 -169395.1324 -169395.1324 0.0000 14503.7685 -5661.8668 534946.2959 14503.7685 -5661.8668
ENERGY: 440 154.0272 656.7149 2887.1307 0.0000 -192671.6990 18641.9405 274.1881 0.0000 0.0000 -170057.6975 0.0000 -170057.6975 -170057.6975 0.0000 14555.7404 -5725.4894 534946.2959 14555.7404 -5725.4894
ENERGY: 460 168.5848 667.5315 2895.9534 0.0000 -193158.2059 18865.2912 257.5861 0.0000 0.0000 -170303.2589 0.0000 -170303.2589 -170303.2589 0.0000 14737.8534 -5601.2995 534946.2959 14737.8534 -5601.2995
ENERGY: 480 415.3268 804.7479 2939.0231 0.0000 -194879.9288 19643.8820 267.3703 0.0000 0.0000 -170809.5787 0.0000 -170809.5787 -170809.5787 0.0000 15176.1570 -5392.7897 534946.2959 15176.1570 -5392.7897
ENERGY: 500 146.5175 672.9257 2908.0787 0.0000 -196498.3832 20434.7560 327.6738 0.0000 0.0000 -172008.4316 0.0000 -172008.4316 -172008.4316 0.0000 15520.9561 -5193.6714 534946.2959 15520.9561 -5193.6714
TCL: Setting parameter constraintScaling to 0.3125
TCL: Minimizing for 100 steps
ETITLE: TS BOND ANGLE DIHED IMPRP ELECT VDW BOUNDARY MISC KINETIC TOTAL TEMP POTENTIAL TOTAL3 TEMPAVG PRESSURE GPRESSURE VOLUME PRESSAVG GPRESSAVG
ENERGY: 500 146.5175 672.9257 2908.0787 0.0000 -196498.3832 20434.7560 163.8369 0.0000 0.0000 -172172.2685 0.0000 -172172.2685 -172172.2685 0.0000 15730.9637 -26736.9253 534946.2959 15730.9637 -26736.9253
ENERGY: 520 186.5588 672.3059 2875.0385 0.0000 -196904.8687 20410.4491 196.6955 0.0000 0.0000 -172563.8209 0.0000 -172563.8209 -172563.8209 0.0000 15523.9762 -5231.3421 534946.2959 15523.9762 -5231.3421
ENERGY: 540 190.8019 704.8528 2880.1434 0.0000 -197457.9177 20536.1243 229.6887 0.0000 0.0000 -172916.3066 0.0000 -172916.3066 -172916.3066 0.0000 15511.1390 -5310.1278 534946.2959 15511.1390 -5310.1278
ENERGY: 560 166.9334 682.3919 2869.1619 0.0000 -197660.1214 20590.8846 228.4263 0.0000 0.0000 -173122.3233 0.0000 -173122.3233 -173122.3233 0.0000 15573.0086 -5278.4329 534946.2959 15573.0086 -5278.4329
ENERGY: 580 173.5135 670.4704 2876.9749 0.0000 -198124.4197 20812.0231 210.2708 0.0000 0.0000 -173381.1670 0.0000 -173381.1670 -173381.1670 0.0000 15767.1130 -5132.9041 534946.2959 15767.1130 -5132.9041
ENERGY: 600 183.0290 728.0415 2904.3156 0.0000 -199190.8534 21290.4316 225.6994 0.0000 0.0000 -173859.3363 0.0000 -173859.3363 -173859.3363 0.0000 16016.1175 -4998.8127 534946.2959 16016.1175 -4998.8127
TCL: Setting parameter constraintScaling to 0.15625
TCL: Minimizing for 100 steps
ETITLE: TS BOND ANGLE DIHED IMPRP ELECT VDW BOUNDARY MISC KINETIC TOTAL TEMP POTENTIAL TOTAL3 TEMPAVG PRESSURE GPRESSURE VOLUME PRESSAVG GPRESSAVG
ENERGY: 600 183.0290 728.0415 2904.3156 0.0000 -199190.8534 21290.4316 112.8497 0.0000 0.0000 -173972.1860 0.0000 -173972.1860 -173972.1860 0.0000 16141.5316 -26967.3364 534946.2959 16141.5316 -26967.3364
ENERGY: 620 144.8075 640.1837 2858.2048 0.0000 -199386.6580 21263.4707 120.4320 0.0000 0.0000 -174359.5593 0.0000 -174359.5593 -174359.5593 0.0000 16083.5037 -4964.7414 534946.2959 16083.5037 -4964.7414
ENERGY: 640 172.6741 682.3869 2857.0574 0.0000 -199807.1099 21363.4943 140.8028 0.0000 0.0000 -174590.6944 0.0000 -174590.6944 -174590.6944 0.0000 16027.4961 -5069.9528 534946.2959 16027.4961 -5069.9528
ENERGY: 660 261.0405 722.2353 2854.6464 0.0000 -200811.6994 21715.1166 162.0545 0.0000 0.0000 -175096.6062 0.0000 -175096.6062 -175096.6062 0.0000 16174.5961 -5050.3745 534946.2959 16174.5961 -5050.3745
ENERGY: 680 204.6702 694.8742 2843.8606 0.0000 -201240.7094 21885.2686 163.2113 0.0000 0.0000 -175448.8245 0.0000 -175448.8245 -175448.8245 0.0000 16255.7825 -4999.2941 534946.2959 16255.7825 -4999.2941
ENERGY: 700 168.0180 677.6151 2846.8639 0.0000 -201578.1409 22057.9796 161.5922 0.0000 0.0000 -175666.0721 0.0000 -175666.0721 -175666.0721 0.0000 16409.7596 -4898.6970 534946.2959 16409.7596 -4898.6970
TCL: Setting parameter constraintScaling to 0.078125
TCL: Minimizing for 100 steps
ETITLE: TS BOND ANGLE DIHED IMPRP ELECT VDW BOUNDARY MISC KINETIC TOTAL TEMP POTENTIAL TOTAL3 TEMPAVG PRESSURE GPRESSURE VOLUME PRESSAVG GPRESSAVG
ENERGY: 700 168.0180 677.6151 2846.8639 0.0000 -201578.1409 22057.9796 80.7961 0.0000 0.0000 -175746.8682 0.0000 -175746.8682 -175746.8682 0.0000 16485.1329 -27185.7890 534946.2959 16485.1329 -27185.7890
ENERGY: 720 151.4453 649.5049 2836.4399 0.0000 -201698.7309 22080.8707 81.8443 0.0000 0.0000 -175898.6258 0.0000 -175898.6258 -175898.6258 0.0000 16503.0297 -4821.4927 534946.2959 16503.0297 -4821.4927
ENERGY: 740 157.6817 659.0603 2833.9780 0.0000 -202011.1773 22184.4927 86.9630 0.0000 0.0000 -176089.0016 0.0000 -176089.0016 -176089.0016 0.0000 16518.2172 -4840.4056 534946.2959 16518.2172 -4840.4056
ENERGY: 760 165.8691 654.6569 2832.7705 0.0000 -202103.6353 22218.6078 87.7425 0.0000 0.0000 -176143.9884 0.0000 -176143.9884 -176143.9884 0.0000 16528.9935 -4837.2827 534946.2959 16528.9935 -4837.2827
ENERGY: 780 231.2384 670.7907 2835.0307 0.0000 -202628.4032 22463.5601 91.4101 0.0000 0.0000 -176336.3733 0.0000 -176336.3733 -176336.3733 0.0000 16673.7366 -4760.1129 534946.2959 16673.7366 -4760.1129
ENERGY: 800 167.7543 648.3021 2830.6226 0.0000 -202800.2063 22526.5612 92.4822 0.0000 0.0000 -176534.4839 0.0000 -176534.4839 -176534.4839 0.0000 16711.3549 -4740.7955 534946.2959 16711.3549 -4740.7955
TCL: Setting parameter constraintScaling to 0.0390625
TCL: Minimizing for 100 steps
ETITLE: TS BOND ANGLE DIHED IMPRP ELECT VDW BOUNDARY MISC KINETIC TOTAL TEMP POTENTIAL TOTAL3 TEMPAVG PRESSURE GPRESSURE VOLUME PRESSAVG GPRESSAVG
ENERGY: 800 167.7543 648.3021 2830.6226 0.0000 -202800.2063 22526.5612 46.2411 0.0000 0.0000 -176580.7250 0.0000 -176580.7250 -176580.7250 0.0000 16752.3165 -27213.9106 534946.2959 16752.3165 -27213.9106
ENERGY: 820 196.4705 665.4559 2826.5561 0.0000 -203083.6968 22613.3142 48.4638 0.0000 0.0000 -176733.4363 0.0000 -176733.4363 -176733.4363 0.0000 16762.9428 -4718.9932 534946.2959 16762.9428 -4718.9932
ENERGY: 840 163.7049 653.8140 2823.0301 0.0000 -203413.3929 22747.5576 50.8181 0.0000 0.0000 -176974.4682 0.0000 -176974.4682 -176974.4682 0.0000 16833.1424 -4683.4151 534946.2959 16833.1424 -4683.4151
ENERGY: 860 453.7331 721.2383 2824.7116 0.0000 -203918.5441 22964.0608 52.6423 0.0000 0.0000 -176902.1580 0.0000 -176902.1580 -176902.1580 0.0000 16953.3188 -4627.3362 534946.2959 16953.3188 -4627.3362
ENERGY: 880 185.2533 667.2952 2822.9200 0.0000 -204303.1843 23141.4224 54.8929 0.0000 0.0000 -177431.4005 0.0000 -177431.4005 -177431.4005 0.0000 17045.4776 -4585.7522 534946.2959 17045.4776 -4585.7522
ENERGY: 900 160.9421 647.3661 2817.3550 0.0000 -204515.9244 23230.1973 56.3803 0.0000 0.0000 -177603.6836 0.0000 -177603.6836 -177603.6836 0.0000 17093.5306 -4553.6440 534946.2959 17093.5306 -4553.6440
TCL: Setting parameter constraintScaling to 0.01953125
TCL: Minimizing for 100 steps
ETITLE: TS BOND ANGLE DIHED IMPRP ELECT VDW BOUNDARY MISC KINETIC TOTAL TEMP POTENTIAL TOTAL3 TEMPAVG PRESSURE GPRESSURE VOLUME PRESSAVG GPRESSAVG
ENERGY: 900 160.9421 647.3661 2817.3550 0.0000 -204515.9244 23230.1973 28.1901 0.0000 0.0000 -177631.8737 0.0000 -177631.8737 -177631.8737 0.0000 17116.7886 -27256.1549 534946.2959 17116.7886 -27256.1549
ENERGY: 920 233.3799 667.0020 2817.9700 0.0000 -204794.3133 23336.8609 29.2975 0.0000 0.0000 -177709.8031 0.0000 -177709.8031 -177709.8031 0.0000 17149.1274 -4531.1633 534946.2959 17149.1274 -4531.1633
ENERGY: 940 164.6312 649.9118 2814.4418 0.0000 -204958.7964 23410.2281 29.7792 0.0000 0.0000 -177889.8043 0.0000 -177889.8043 -177889.8043 0.0000 17192.8115 -4506.7772 534946.2959 17192.8115 -4506.7772
ENERGY: 960 161.3192 649.5777 2812.3369 0.0000 -205303.0241 23570.0485 30.7695 0.0000 0.0000 -178078.9723 0.0000 -178078.9723 -178078.9723 0.0000 17281.0747 -4456.8227 534946.2959 17281.0747 -4456.8227
ENERGY: 980 221.7118 672.5411 2812.2984 0.0000 -205687.4437 23727.3985 32.2279 0.0000 0.0000 -178221.2659 0.0000 -178221.2659 -178221.2659 0.0000 17342.4264 -4447.9165 534946.2959 17342.4264 -4447.9165
ENERGY: 1000 164.5976 662.0890 2809.0960 0.0000 -206185.1785 23958.3643 34.1392 0.0000 0.0000 -178556.8924 0.0000 -178556.8924 -178556.8924 0.0000 17474.2361 -4374.0879 534946.2959 17474.2361 -4374.0879
TCL: Setting parameter constraintScaling to 0
TCL: Minimizing for 5000 steps
ETITLE: TS BOND ANGLE DIHED IMPRP ELECT VDW BOUNDARY MISC KINETIC TOTAL TEMP POTENTIAL TOTAL3 TEMPAVG PRESSURE GPRESSURE VOLUME PRESSAVG GPRESSAVG
ENERGY: 1000 164.5976 662.0890 2809.0960 0.0000 -206185.1785 23958.3643 0.0000 0.0000 0.0000 -178591.0315 0.0000 -178591.0315 -178591.0315 0.0000 17500.6652 -27272.6573 534946.2959 17500.6652 -27272.6573
ENERGY: 2000 168.5734 661.5799 2801.8314 0.0000 -215177.6214 27966.6061 0.0000 0.0000 0.0000 -183579.0307 0.0000 -183579.0307 -183579.0307 0.0000 19631.1017 -3221.1258 534946.2959 19631.1017 -3221.1258
ENERGY: 3000 166.8260 665.5080 2800.1199 0.0000 -217617.9909 28971.2826 0.0000 0.0000 0.0000 -185014.2543 0.0000 -185014.2543 -185014.2543 0.0000 20167.6917 -2921.3988 534946.2959 20167.6917 -2921.3988
ENERGY: 4000 165.1169 660.5038 2792.3269 0.0000 -218937.3422 29474.6540 0.0000 0.0000 0.0000 -185844.7406 0.0000 -185844.7406 -185844.7406 0.0000 20429.0568 -2798.8711 534946.2959 20429.0568 -2798.8711
ENERGY: 5000 166.2574 664.6142 2793.0775 0.0000 -219571.7861 29692.1531 0.0000 0.0000 0.0000 -186255.6840 0.0000 -186255.6840 -186255.6840 0.0000 20532.8335 -2763.2028 534946.2959 20532.8335 -2763.2028
ENERGY: 6000 166.2270 665.8099 2793.6940 0.0000 -219936.8516 29856.4574 0.0000 0.0000 0.0000 -186454.6634 0.0000 -186454.6634 -186454.6634 0.0000 20626.5645 -2709.1218 534946.2959 20626.5645 -2709.1218
