Info: SIMULATION PARAMETERS:
Info: TIMESTEP               1
Info: NUMBER OF STEPS        0
Info: STEPS PER CYCLE        10
Info: PERIODIC CELL BASIS 1  72.449 0 0
Info: PERIODIC CELL BASIS 2  0 93.247 0
Info: PERIODIC CELL BASIS 3  0 0 79.185
Info: PERIODIC CELL CENTER   -0.248 -0.156 -0.047
Info: WRAPPING WATERS AROUND PERIODIC BOUNDARIES ON OUTPUT.
Info: WRAPPING ALL CLUSTERS AROUND PERIODIC BOUNDARIES ON OUTPUT.
Info: FIRST LDB TIMESTEP     50
Info: LAST LDB TIMESTEP     -1
Info: HOM BACKGROUND SCALING 1
Info: PME BACKGROUND SCALING 1
Info: MIN ATOMS PER PATCH    40
Info: VELOCITY FILE          ../replicas/rep11/equilibration/eq1.vel
Info: CENTER OF MASS MOVING INITIALLY? NO
Info: DIELECTRIC             1
Info: EXCLUDE                SCALED ONE-FOUR
Info: 1-4 ELECTROSTATICS SCALED BY 0.833333
Info: MODIFIED 1-4 VDW PARAMETERS WILL BE USED
Info: DCD FILENAME           ../replicas/rep11/equilibration/eq2.dcd
Info: DCD FREQUENCY          5000
Info: DCD FIRST STEP         5000
Info: DCD FILE WILL CONTAIN UNIT CELL DATA
Info: XST FILENAME           ../replicas/rep11/equilibration/eq2.xst
Info: XST FREQUENCY          5000
Info: NO VELOCITY DCD OUTPUT
Info: NO FORCE DCD OUTPUT
Info: OUTPUT FILENAME        ../replicas/rep11/equilibration/eq2
Info: RESTART FILENAME       ../replicas/rep11/equilibration/eq2.restart
Info: RESTART FREQUENCY      5000
Info: BINARY RESTART FILES WILL BE USED
Info: SWITCHING ACTIVE
Info: SWITCHING ON           10
Info: SWITCHING OFF          12
Info: PAIRLIST DISTANCE      13.5
Info: PAIRLIST SHRINK RATE   0.01
Info: PAIRLIST GROW RATE     0.01
Info: PAIRLIST TRIGGER       0.3
Info: PAIRLISTS PER CYCLE    2
Info: PAIRLISTS ENABLED
Info: MARGIN                 0.48
Info: HYDROGEN GROUP CUTOFF  2.5
Info: PATCH DIMENSION        16.48
Info: ENERGY OUTPUT STEPS    500
Info: CROSSTERM ENERGY INCLUDED IN DIHEDRAL
Info: TIMING OUTPUT STEPS    5000
Info: PRESSURE OUTPUT STEPS  500
Info: HARMONIC CONSTRAINTS ACTIVE
Info: HARMONIC CONS EXP      2
Info: HARMONIC CONS SCALING  10
Info: LANGEVIN DYNAMICS ACTIVE
Info: LANGEVIN TEMPERATURE   300
Info: LANGEVIN USING BBK INTEGRATOR
Info: LANGEVIN DAMPING COEFFICIENT IS 5 INVERSE PS
Info: LANGEVIN DYNAMICS NOT APPLIED TO HYDROGENS
Info: BERENDSEN PRESSURE COUPLING ACTIVE
Info:     TARGET PRESSURE IS 1 BAR
Info:     COMPRESSIBILITY ESTIMATE IS 4.57e-05 BAR^(-1)
Info:     RELAXATION TIME IS 100 FS
Info:     APPLIED EVERY 2 STEPS
Info:     PRESSURE CONTROL IS GROUP-BASED
Info:       CELL FLUCTUATION IS ISOTROPIC
Info: PARTICLE MESH EWALD (PME) ACTIVE
Info: PME TOLERANCE               1e-06
Info: PME EWALD COEFFICIENT       0.257952
Info: PME INTERPOLATION ORDER     4
Info: PME GRID DIMENSIONS         80 96 80
Info: PME MAXIMUM GRID SPACING    1
Info: FULL ELECTROSTATIC EVALUATION FREQUENCY      2
Info: USING VERLET I (r-RESPA) MTS SCHEME.
Info: C1 SPLITTING OF LONG RANGE ELECTROSTATICS
Info: PLACING ATOMS IN PATCHES BY HYDROGEN GROUPS
Info: RIGID BONDS TO HYDROGEN : WATER
Info:         ERROR TOLERANCE : 1e-05
Info:          MAX ITERATIONS : 100
Info: RIGID WATER USING SETTLE ALGORITHM
Info: RANDOM NUMBER SEED     1503275989
Info: USE HYDROGEN BONDS?    NO
Info: Using AMBER format force field!
Info: AMBER PARM FILE        ../build/complex.top
Info: COORDINATE PDB         ../replicas/rep11/equilibration/eq1.coor
Info: Exclusions in PARM file will be ignored!
Info: SCNB (VDW SCALING)     2
Info: USING ARITHMETIC MEAN TO COMBINE L-J SIGMA PARAMETERS
Info: SUMMARY OF PARAMETERS:
Info: 71 BONDS
Info: 145 ANGLES
Info:   145 HARMONIC
Info:   0 COSINE-BASED
Info: 76 DIHEDRAL
Info: 0 IMPROPER
Info: 0 CROSSTERM
Info: 0 VDW
Info: 190 VDW_PAIRS
Info: 0 NBTHOLE_PAIRS
Info: STRUCTURE SUMMARY:
Info: 49394 ATOMS
Info: 49448 BONDS
Info: 8698 ANGLES
Info: 18780 DIHEDRALS
Info: 0 IMPROPERS
Info: 0 CROSSTERMS
Info: 0 EXCLUSIONS
Info: 2336 CONSTRAINTS
Info: 44667 RIGID BONDS
Info: 103515 DEGREES OF FREEDOM
Info: 17225 HYDROGEN GROUPS
Info: 4 ATOMS IN LARGEST HYDROGEN GROUP
Info: 17225 MIGRATION GROUPS
Info: 4 ATOMS IN LARGEST MIGRATION GROUP
Info: TOTAL MASS = 301478 amu
Info: TOTAL CHARGE = 1.00115e-05 e
Info: MASS DENSITY = 0.935846 g/cm^3
Info: ATOM DENSITY = 0.0923345 atoms/A^3
Info: ADDED 70656 IMPLICIT EXCLUSIONS
Info: NONBONDED TABLE R-SQUARED SPACING: 0.0625
Info: NONBONDED TABLE SIZE: 769 POINTS
Info: REMOVING COM VELOCITY -0.0239454 0.00451188 0.00813821
TCL: Running for 5000 steps
ETITLE: TS BOND ANGLE DIHED IMPRP ELECT VDW BOUNDARY MISC KINETIC TOTAL TEMP POTENTIAL TOTAL3 TEMPAVG PRESSURE GPRESSURE VOLUME PRESSAVG GPRESSAVG
ENERGY: 0 384.7375 1208.6987 2904.4670 0.0000 -212716.4537 29492.0038 0.0000 0.0000 9987.2505 -168739.2962 97.1031 -178726.5467 -168729.6562 97.1031 -2398.4014 -2494.1873 534946.2959 -2398.4014 -2494.1873
ENERGY: 1000 1269.1578 1978.9143 3134.6501 0.0000 -193880.9333 26708.0260 760.0955 0.0000 24010.8280 -136019.2616 233.4502 -160030.0896 -135990.7023 218.4613 -53.9201 -28.4711 523358.0756 -11.1854 -11.2442
ENERGY: 2000 1446.6040 2180.2253 3142.1223 0.0000 -183865.4133 23228.4254 784.9358 0.0000 27814.5477 -125268.5528 270.4326 -153083.1005 -125223.6170 263.9517 -118.4579 -11.1895 516687.9440 -18.4549 -18.3725
ENERGY: 3000 1550.9774 2178.2710 3140.6529 0.0000 -179333.7063 21806.7169 782.4316 0.0000 29672.7831 -120201.8735 288.4997 -149874.6565 -120166.3914 284.0495 -75.1160 -13.8718 511944.6501 -20.9079 -21.0183
ENERGY: 4000 1554.9730 2240.9823 3131.9531 0.0000 -176729.7775 20662.4330 788.8481 0.0000 30424.5736 -117926.0145 295.8091 -148350.5880 -117879.4192 293.8437 4.5698 18.7493 508519.8527 -12.3389 -12.1690
ENERGY: 5000 1605.0288 2276.7037 3166.0264 0.0000 -176199.6254 20578.3868 815.4138 0.0000 30641.5308 -117116.5351 297.9186 -147758.0659 -117072.5014 296.7409 11.9957 4.9657 506088.7719 -4.5548 -4.7390
TCL: Setting parameter constraintScaling to 5.0
TCL: Running for 5000 steps
ETITLE: TS BOND ANGLE DIHED IMPRP ELECT VDW BOUNDARY MISC KINETIC TOTAL TEMP POTENTIAL TOTAL3 TEMPAVG PRESSURE GPRESSURE VOLUME PRESSAVG GPRESSAVG
ENERGY: 5000 1605.0288 2276.7037 3166.0264 0.0000 -176199.6254 20578.3868 407.7069 0.0000 30639.4943 -117526.2785 297.8988 -148165.7729 -117483.5462 297.8988 -0.8708 -9.5598 506088.7719 -0.8708 -9.5598
ENERGY: 6000 1602.3032 2242.5098 3192.7363 0.0000 -175717.8303 20294.9140 669.8868 0.0000 30593.2476 -117122.2326 297.4491 -147715.4803 -117070.2836 298.7163 25.1990 18.9723 503775.0873 -8.6713 -8.5205
ENERGY: 7000 1604.5722 2271.5122 3189.3874 0.0000 -176034.9346 20423.6456 643.8724 0.0000 30931.0663 -116970.8785 300.7336 -147901.9448 -116918.2020 298.7519 -53.7079 -28.1954 502774.6096 -3.4833 -3.6764
ENERGY: 8000 1580.4195 2322.0393 3156.0568 0.0000 -175460.9878 20144.6189 637.4497 0.0000 30750.7263 -116869.6773 298.9802 -147620.4037 -116827.7742 299.3755 -100.5758 -13.7587 503008.2328 11.7319 11.7545
ENERGY: 9000 1628.3051 2301.7921 3168.9824 0.0000 -175543.2479 20152.1087 645.0097 0.0000 30696.2257 -116950.8241 298.4503 -147647.0499 -116904.3382 299.0622 -32.4915 -17.8271 502134.8233 7.0714 6.9759
ENERGY: 10000 1624.5743 2337.3555 3172.6762 0.0000 -175248.7333 19911.0507 632.9261 0.0000 30825.1413 -116745.0093 299.7037 -147570.1506 -116712.7191 299.8939 -44.4930 -28.6726 500608.1396 -5.4150 -4.9144
TCL: Setting parameter constraintScaling to 2.5
TCL: Running for 5000 steps
ETITLE: TS BOND ANGLE DIHED IMPRP ELECT VDW BOUNDARY MISC KINETIC TOTAL TEMP POTENTIAL TOTAL3 TEMPAVG PRESSURE GPRESSURE VOLUME PRESSAVG GPRESSAVG
ENERGY: 10000 1624.5743 2337.3555 3172.6762 0.0000 -175248.7333 19911.0507 316.4630 0.0000 30823.1184 -117063.4953 299.6841 -147886.6136 -117019.2042 299.6841 -115.5244 -106.4977 500608.1396 -115.5244 -106.4977
ENERGY: 11000 1660.1174 2336.9783 3190.3810 0.0000 -175625.4124 20331.1238 510.7358 0.0000 30902.5097 -116693.5665 300.4560 -147596.0761 -116638.0088 300.0823 48.8216 -7.4788 500869.3557 8.7639 8.6488
ENERGY: 12000 1559.2420 2334.4390 3191.6698 0.0000 -175313.0602 20192.5186 512.2457 0.0000 30851.0126 -116671.9325 299.9553 -147522.9451 -116630.4935 300.4750 50.2163 -2.6222 500057.4669 0.6044 0.5178
ENERGY: 13000 1605.8898 2328.9706 3152.3279 0.0000 -175803.4550 20183.2962 483.4092 0.0000 30797.8928 -117251.6686 299.4388 -148049.5613 -117208.4053 299.4192 -98.6918 2.3212 498365.4415 -1.1892 -1.4830
ENERGY: 14000 1613.8900 2351.5268 3202.7478 0.0000 -175604.3205 20025.1720 526.5091 0.0000 30878.3601 -117006.1146 300.2212 -147884.4747 -116960.1638 299.7276 53.5188 89.9350 499497.3113 11.2074 11.1526
ENERGY: 15000 1628.6746 2336.5183 3148.3543 0.0000 -175662.8691 20167.2815 498.6941 0.0000 30984.7692 -116898.5772 301.2558 -147883.3464 -116839.1281 300.5098 22.8452 30.4543 500064.3325 4.6509 4.5650
TCL: Setting parameter constraintScaling to 1.25
TCL: Running for 5000 steps
ETITLE: TS BOND ANGLE DIHED IMPRP ELECT VDW BOUNDARY MISC KINETIC TOTAL TEMP POTENTIAL TOTAL3 TEMPAVG PRESSURE GPRESSURE VOLUME PRESSAVG GPRESSAVG
ENERGY: 15000 1628.6746 2336.5183 3148.3543 0.0000 -175662.8692 20167.2815 249.3470 0.0000 30982.7253 -117149.9682 301.2359 -148132.6935 -117107.5142 301.2359 -2.4316 0.2149 500064.3325 -2.4316 0.2149
ENERGY: 16000 1598.2409 2412.2329 3196.7883 0.0000 -175320.7149 19878.8661 376.1866 0.0000 30883.8309 -116974.5692 300.2744 -147858.4000 -116927.7823 300.8256 -104.4577 -30.7935 500660.2067 8.1143 8.7669
ENERGY: 17000 1597.2605 2391.6942 3167.9047 0.0000 -175347.3288 19978.1912 402.8395 0.0000 31028.4986 -116780.9402 301.6809 -147809.4388 -116740.7899 300.2204 -30.6771 -3.5339 498846.4091 -10.0895 -10.8379
ENERGY: 18000 1619.3949 2338.7700 3217.1904 0.0000 -175784.6540 20348.8677 399.1315 0.0000 31098.7221 -116762.5774 302.3637 -147861.2994 -116717.8698 300.6087 -23.5166 10.0303 498500.2106 -6.4563 -6.5328
ENERGY: 19000 1601.7877 2331.0497 3203.1769 0.0000 -175423.3648 20037.5445 389.7291 0.0000 30887.1662 -116972.9107 300.3068 -147860.0769 -116929.2353 299.7864 27.9432 24.0199 500092.4937 7.1582 6.6351
ENERGY: 20000 1568.3043 2365.2085 3204.4596 0.0000 -175498.6772 19886.0209 416.8009 0.0000 30650.8191 -117407.0639 298.0089 -148057.8831 -117361.7255 299.0700 -59.2379 -7.1490 499375.9490 -2.4061 -2.8530
TCL: Setting parameter constraintScaling to 0.625
TCL: Running for 5000 steps
ETITLE: TS BOND ANGLE DIHED IMPRP ELECT VDW BOUNDARY MISC KINETIC TOTAL TEMP POTENTIAL TOTAL3 TEMPAVG PRESSURE GPRESSURE VOLUME PRESSAVG GPRESSAVG
ENERGY: 20000 1568.3043 2365.2085 3204.4596 0.0000 -175498.6772 19886.0209 208.4005 0.0000 30648.8008 -117617.4827 297.9892 -148266.2835 -117572.7865 297.9892 -132.8749 -78.6544 499375.9490 -132.8749 -78.6544
ENERGY: 21000 1559.3405 2372.7410 3184.3449 0.0000 -175847.8156 20092.3548 305.0284 0.0000 30766.7438 -117567.2621 299.1360 -148334.0060 -117520.5054 297.8035 -3.3277 72.6886 497973.4852 2.7010 2.0949
ENERGY: 22000 1574.7960 2317.2336 3203.6995 0.0000 -175498.0374 20134.3398 339.6507 0.0000 30742.7827 -117185.5351 298.9030 -147928.3179 -117141.1394 298.8074 84.4379 85.4163 498886.2914 4.4311 3.8433
ENERGY: 23000 1634.3479 2384.8515 3194.6012 0.0000 -175787.4565 20268.9934 304.2477 0.0000 30737.5455 -117262.8694 298.8521 -148000.4148 -117212.0074 299.8215 58.1434 58.3608 499230.6649 7.7356 7.1886
ENERGY: 24000 1613.2768 2439.8046 3161.1464 0.0000 -176079.0768 20225.0270 311.6440 0.0000 30858.9275 -117469.2505 300.0322 -148328.1780 -117419.0495 299.0072 -22.2871 1.1396 499289.0511 -2.1054 -2.0735
ENERGY: 25000 1690.4075 2400.7026 3202.0540 0.0000 -175780.9913 20103.9737 315.3783 0.0000 30784.1943 -117284.2808 299.3056 -148068.4751 -117245.6839 299.9832 -97.1800 -49.4842 498297.8347 -6.1170 -5.9206
TCL: Setting parameter constraintScaling to 0.3125
TCL: Running for 5000 steps
ETITLE: TS BOND ANGLE DIHED IMPRP ELECT VDW BOUNDARY MISC KINETIC TOTAL TEMP POTENTIAL TOTAL3 TEMPAVG PRESSURE GPRESSURE VOLUME PRESSAVG GPRESSAVG
ENERGY: 25000 1690.4075 2400.7026 3202.0540 0.0000 -175780.9913 20103.9737 157.6892 0.0000 30782.1286 -117444.0357 299.2855 -148226.1643 -117400.5125 299.2855 -122.6384 -77.7288 498297.8347 -122.6384 -77.7288
ENERGY: 26000 1617.2817 2403.2529 3194.2680 0.0000 -175517.7112 19995.5838 250.5677 0.0000 30803.4027 -117253.3543 299.4924 -148056.7570 -117222.5298 299.7716 -88.2596 -60.8672 498946.7263 1.9892 2.1448
ENERGY: 27000 1607.9373 2397.2391 3222.6593 0.0000 -175519.7479 19815.1651 243.5852 0.0000 30965.2273 -117267.9345 301.0658 -148233.1619 -117211.2578 300.5821 -86.1865 -70.2343 497953.8879 -4.3771 -4.6993
ENERGY: 28000 1601.1817 2429.7375 3203.7655 0.0000 -175611.2607 20006.2717 260.3374 0.0000 30678.8620 -117431.1048 298.2815 -148109.9668 -117389.2033 299.4467 -92.1409 -2.6547 498416.1290 10.2812 9.7654
ENERGY: 29000 1649.1153 2377.5484 3225.8579 0.0000 -175855.8149 19915.2767 248.2782 0.0000 30699.9786 -117739.7598 298.4868 -148439.7384 -117692.8122 298.5992 13.9008 30.7550 496830.7150 -5.5504 -5.5833
ENERGY: 30000 1638.9332 2355.6403 3202.9151 0.0000 -175420.3684 19810.0463 255.3913 0.0000 30673.6859 -117483.7562 298.2312 -148157.4421 -117447.3533 299.3232 -203.1186 -156.7394 497231.2754 1.5480 1.5567
TCL: Setting parameter constraintScaling to 0.15625
TCL: Running for 5000 steps
ETITLE: TS BOND ANGLE DIHED IMPRP ELECT VDW BOUNDARY MISC KINETIC TOTAL TEMP POTENTIAL TOTAL3 TEMPAVG PRESSURE GPRESSURE VOLUME PRESSAVG GPRESSAVG
ENERGY: 30000 1638.9332 2355.6403 3202.9151 0.0000 -175420.3684 19810.0463 127.6957 0.0000 30671.6303 -117613.5075 298.2112 -148285.1377 -117569.0178 298.2112 -219.8355 -177.8326 497231.2754 -219.8355 -177.8326
ENERGY: 31000 1593.9284 2398.7201 3218.8548 0.0000 -175711.4483 19922.6066 208.6712 0.0000 30815.8885 -117552.7787 299.6138 -148368.6672 -117502.0740 299.3028 -84.9796 -61.6729 495540.2641 4.0042 4.0461
ENERGY: 32000 1563.9232 2393.4469 3179.6190 0.0000 -175688.4617 20112.7669 197.3843 0.0000 30717.5580 -117523.7635 298.6577 -148241.3215 -117463.4170 299.1615 -107.3541 -9.8749 498352.9387 11.5502 12.0775
ENERGY: 33000 1636.8244 2349.3558 3194.2651 0.0000 -176111.6572 20049.1143 221.7665 0.0000 30775.1059 -117885.2250 299.2173 -148660.3310 -117836.5603 298.1797 -117.1504 -92.5624 497736.3700 1.1977 1.6676
ENERGY: 34000 1641.9164 2403.5763 3197.9726 0.0000 -175942.2145 20243.8804 209.9510 0.0000 30728.1833 -117516.7345 298.7611 -148244.9178 -117472.8298 298.7692 -15.6640 17.1318 498295.9355 -1.2457 -1.2770
ENERGY: 35000 1610.4682 2440.5716 3207.4597 0.0000 -176029.5570 20157.9196 220.8800 0.0000 30752.8092 -117639.4486 299.0005 -148392.2578 -117599.0772 299.1193 4.6576 94.8651 498076.3558 -1.7111 -1.4523
TCL: Setting parameter constraintScaling to 0.078125
TCL: Running for 5000 steps
ETITLE: TS BOND ANGLE DIHED IMPRP ELECT VDW BOUNDARY MISC KINETIC TOTAL TEMP POTENTIAL TOTAL3 TEMPAVG PRESSURE GPRESSURE VOLUME PRESSAVG GPRESSAVG
ENERGY: 35000 1610.4682 2440.5716 3207.4597 0.0000 -176029.5570 20157.9196 110.4400 0.0000 30750.7593 -117751.9385 298.9806 -148502.6978 -117709.0817 298.9806 -25.6752 66.4582 498076.3558 -25.6752 66.4582
ENERGY: 36000 1568.3497 2378.9182 3185.4551 0.0000 -175754.8875 20092.4581 161.4003 0.0000 30833.3818 -117534.9243 299.7839 -148368.3061 -117478.5026 300.5757 36.9678 73.9391 497926.1063 3.7645 4.2091
ENERGY: 37000 1581.9014 2372.0259 3229.4611 0.0000 -175955.0629 20119.7617 159.4005 0.0000 30878.9774 -117613.5349 300.2272 -148492.5123 -117565.4049 299.3699 -129.2999 -73.3490 497464.6209 1.2416 0.9251
ENERGY: 38000 1631.7760 2443.5235 3171.0681 0.0000 -175857.9228 20066.4469 160.6241 0.0000 30698.8314 -117685.6528 298.4757 -148384.4842 -117642.9912 299.6751 28.6260 119.3003 497401.8375 -0.5187 -0.4571
ENERGY: 39000 1577.3614 2404.4610 3246.3038 0.0000 -176064.6229 20200.1807 163.5184 0.0000 30750.4071 -117722.3905 298.9771 -148472.7976 -117683.5989 299.2301 -122.0812 -3.5788 498517.3809 1.2985 1.3040
ENERGY: 40000 1608.9244 2416.0184 3199.3371 0.0000 -175849.3782 20155.1885 160.7835 0.0000 30769.7614 -117539.3649 299.1653 -148309.1263 -117500.0094 298.4074 -137.2029 -9.6260 498836.3471 8.8350 9.2535
TCL: Setting parameter constraintScaling to 0.0390625
TCL: Running for 5000 steps
ETITLE: TS BOND ANGLE DIHED IMPRP ELECT VDW BOUNDARY MISC KINETIC TOTAL TEMP POTENTIAL TOTAL3 TEMPAVG PRESSURE GPRESSURE VOLUME PRESSAVG GPRESSAVG
ENERGY: 40000 1608.9244 2416.0184 3199.3371 0.0000 -175849.3782 20155.1885 80.3917 0.0000 30767.7211 -117621.7970 299.1455 -148389.5180 -117581.7870 299.1455 -147.3459 -14.3609 498836.3471 -147.3459 -14.3609
ENERGY: 41000 1692.0383 2411.3798 3189.4675 0.0000 -176042.6423 20293.2251 111.2347 0.0000 30792.4117 -117552.8852 299.3855 -148345.2969 -117506.9754 300.5743 -57.3931 -42.0865 498783.6409 1.4703 1.1984
ENERGY: 42000 1613.9414 2429.6667 3215.2714 0.0000 -175315.4162 19765.9822 115.7079 0.0000 30990.0225 -117184.8241 301.3068 -148174.8466 -117144.8943 300.3582 -10.4114 -37.1275 498655.4350 0.8488 0.9681
ENERGY: 43000 1597.2763 2433.3970 3205.9610 0.0000 -175261.2976 19953.1632 116.0070 0.0000 30618.5249 -117336.9682 297.6949 -147955.4930 -117291.8942 300.0800 11.4026 30.5040 498613.4531 4.5002 4.1089
ENERGY: 44000 1622.9735 2378.4475 3196.5912 0.0000 -175869.6281 20016.6749 115.3756 0.0000 31068.0160 -117471.5494 302.0651 -148539.5654 -117418.9428 299.6285 -36.4668 -13.6836 499173.6208 3.3497 3.5157
ENERGY: 45000 1638.5861 2414.2582 3177.9120 0.0000 -176280.1978 20277.7329 120.1796 0.0000 30808.1492 -117843.3799 299.5385 -148651.5290 -117793.6548 299.1241 87.1176 90.0626 497719.0425 -6.7347 -6.0550
TCL: Setting parameter constraintScaling to 0.01953125
TCL: Running for 5000 steps
ETITLE: TS BOND ANGLE DIHED IMPRP ELECT VDW BOUNDARY MISC KINETIC TOTAL TEMP POTENTIAL TOTAL3 TEMPAVG PRESSURE GPRESSURE VOLUME PRESSAVG GPRESSAVG
ENERGY: 45000 1638.5861 2414.2582 3177.9120 0.0000 -176280.1978 20277.7329 60.0898 0.0000 30806.0972 -117905.5216 299.5186 -148711.6188 -117864.7813 299.5186 73.1433 77.8264 497719.0425 73.1433 77.8264
ENERGY: 46000 1633.2141 2447.1845 3216.0315 0.0000 -176002.9857 20198.0823 70.5438 0.0000 30798.9373 -117638.9921 299.4490 -148437.9294 -117604.9374 299.7855 -80.0721 -0.4228 497161.3302 -6.1957 -6.7488
ENERGY: 47000 1585.0733 2388.7287 3204.6468 0.0000 -175850.2721 20224.5422 77.5218 0.0000 30728.0505 -117641.7088 298.7598 -148369.7593 -117590.3165 300.1322 -45.9863 35.9796 497481.1145 7.5834 7.6568
ENERGY: 48000 1645.8266 2379.7333 3209.9180 0.0000 -175915.7756 20052.0296 84.0174 0.0000 30821.4255 -117722.8251 299.6676 -148544.2506 -117671.7316 299.4503 26.3324 14.1354 496453.2110 6.0878 5.6184
ENERGY: 49000 1665.6517 2405.8637 3225.3249 0.0000 -176109.1303 20108.7849 89.8319 0.0000 30872.8467 -117740.8266 300.1676 -148613.6733 -117702.2768 299.5953 -18.4927 -21.0150 495867.8155 -10.5693 -11.2042
ENERGY: 50000 1632.5423 2374.0846 3197.6286 0.0000 -175725.2633 19930.8301 89.4482 0.0000 30679.3413 -117821.3883 298.2862 -148500.7296 -117776.1661 298.6637 -59.8460 -68.8272 496264.6257 -3.5747 -3.7394
TCL: Setting parameter constraintScaling to 0
TCL: Running for 5000 steps
ETITLE: TS BOND ANGLE DIHED IMPRP ELECT VDW BOUNDARY MISC KINETIC TOTAL TEMP POTENTIAL TOTAL3 TEMPAVG PRESSURE GPRESSURE VOLUME PRESSAVG GPRESSAVG
ENERGY: 50000 1632.5423 2374.0846 3197.6286 0.0000 -175725.2633 19930.8301 0.0000 0.0000 30677.3017 -117912.8760 298.2663 -148590.1777 -117871.9688 298.2663 -71.8622 -79.6470 496264.6257 -71.8622 -79.6470
ENERGY: 51000 1654.1135 2413.3366 3202.7283 0.0000 -175912.3437 19785.7561 0.0000 0.0000 30824.3386 -118032.0706 299.6959 -148856.4092 -117985.6701 299.0599 -22.8860 -38.8764 494401.1593 -8.3265 -8.0975
ENERGY: 52000 1651.2770 2421.1463 3216.2282 0.0000 -175844.7757 20076.5743 0.0000 0.0000 30775.7927 -117703.7572 299.2239 -148479.5499 -117666.0911 299.9833 -149.8368 -108.7223 497115.1979 16.6657 16.8764
ENERGY: 53000 1656.5736 2449.1174 3217.8270 0.0000 -175716.4163 20033.3325 0.0000 0.0000 30878.8095 -117480.7564 300.2255 -148359.5658 -117445.4939 301.0114 -66.4592 -26.7973 496393.9610 2.3118 2.9017
ENERGY: 54000 1642.1156 2394.4224 3204.7040 0.0000 -175394.6183 19950.3248 0.0000 0.0000 30929.0022 -117274.0494 300.7136 -148203.0515 -117237.4120 301.2901 -47.0368 -0.8497 496605.8705 9.0442 9.0455
ENERGY: 55000 1702.3043 2401.2415 3276.6105 0.0000 -175948.0802 19998.3038 0.0000 0.0000 30911.8194 -117657.8006 300.5465 -148569.6200 -117613.7272 299.8052 -140.3714 -48.4859 496337.3893 -8.1358 -7.7099
