Info: SIMULATION PARAMETERS:
Info: TIMESTEP               2
Info: NUMBER OF STEPS        0
Info: STEPS PER CYCLE        10
Info: PERIODIC CELL BASIS 1  72.449 0 0
Info: PERIODIC CELL BASIS 2  0 93.247 0
Info: PERIODIC CELL BASIS 3  0 0 79.185
Info: PERIODIC CELL CENTER   -0.248 -0.156 -0.047
Info: WRAPPING WATERS AROUND PERIODIC BOUNDARIES ON OUTPUT.
Info: WRAPPING ALL CLUSTERS AROUND PERIODIC BOUNDARIES ON OUTPUT.
Info: FIRST LDB TIMESTEP     50
Info: LAST LDB TIMESTEP     -1
Info: HOM BACKGROUND SCALING 1
Info: PME BACKGROUND SCALING 1
Info: MIN ATOMS PER PATCH    40
Info: INITIAL TEMPERATURE    0
Info: CENTER OF MASS MOVING INITIALLY? NO
Info: DIELECTRIC             1
Info: EXCLUDE                SCALED ONE-FOUR
Info: 1-4 ELECTROSTATICS SCALED BY 0.833333
Info: MODIFIED 1-4 VDW PARAMETERS WILL BE USED
Info: NO DCD TRAJECTORY OUTPUT
Info: NO EXTENDED SYSTEM TRAJECTORY OUTPUT
Info: NO VELOCITY DCD OUTPUT
Info: NO FORCE DCD OUTPUT
Info: OUTPUT FILENAME        ../replicas/rep125/equilibration/eq0
Info: NO RESTART FILE
Info: SWITCHING ACTIVE
Info: SWITCHING ON           10
Info: SWITCHING OFF          12
Info: PAIRLIST DISTANCE      13.5
Info: PAIRLIST SHRINK RATE   0.01
Info: PAIRLIST GROW RATE     0.01
Info: PAIRLIST TRIGGER       0.3
Info: PAIRLISTS PER CYCLE    2
Info: PAIRLISTS ENABLED
Info: MARGIN                 0
Info: HYDROGEN GROUP CUTOFF  2.5
Info: PATCH DIMENSION        16
Info: ENERGY OUTPUT STEPS    500
Info: CROSSTERM ENERGY INCLUDED IN DIHEDRAL
Info: TIMING OUTPUT STEPS    5000
Info: PRESSURE OUTPUT STEPS  500
Info: HARMONIC CONSTRAINTS ACTIVE
Info: HARMONIC CONS EXP      2
Info: HARMONIC CONS SCALING  10
Info: CONJUGATE GRADIENT MINIMIZATION ACTIVE
Info: LINE MINIMIZATION GOAL = 0.001
Info: BABY STEP SIZE = 0.01
Info: TINY STEP SIZE = 1e-06
Info: PARTICLE MESH EWALD (PME) ACTIVE
Info: PME TOLERANCE               1e-06
Info: PME EWALD COEFFICIENT       0.257952
Info: PME INTERPOLATION ORDER     4
Info: PME GRID DIMENSIONS         80 96 80
Info: PME MAXIMUM GRID SPACING    1
Info: FULL ELECTROSTATIC EVALUATION FREQUENCY      2
Info: USING VERLET I (r-RESPA) MTS SCHEME.
Info: C1 SPLITTING OF LONG RANGE ELECTROSTATICS
Info: PLACING ATOMS IN PATCHES BY HYDROGEN GROUPS
Info: RIGID BONDS TO HYDROGEN : ALL
Info:         ERROR TOLERANCE : 1e-05
Info:          MAX ITERATIONS : 100
Info: RIGID WATER USING SETTLE ALGORITHM
Info: RANDOM NUMBER SEED     1503692285
Info: USE HYDROGEN BONDS?    NO
Info: Using AMBER format force field!
Info: AMBER PARM FILE        ../build/complex.top
Info: COORDINATE PDB         ../build/complex.pdb
Info: Exclusions in PARM file will be ignored!
Info: SCNB (VDW SCALING)     2
Info: USING ARITHMETIC MEAN TO COMBINE L-J SIGMA PARAMETERS
Info: SUMMARY OF PARAMETERS:
Info: 71 BONDS
Info: 145 ANGLES
Info: 76 DIHEDRAL
Info: 0 IMPROPER
Info: 0 CROSSTERM
Info: 0 VDW
Info: 190 VDW_PAIRS
Info: 0 NBTHOLE_PAIRS
Info: STRUCTURE SUMMARY:
Info: 49394 ATOMS
Info: 49448 BONDS
Info: 8698 ANGLES
Info: 18780 DIHEDRALS
Info: 0 IMPROPERS
Info: 0 CROSSTERMS
Info: 0 EXCLUSIONS
Info: 2336 CONSTRAINTS
Info: 47058 RIGID BONDS
Info: 101124 DEGREES OF FREEDOM
Info: 17225 HYDROGEN GROUPS
Info: 4 ATOMS IN LARGEST HYDROGEN GROUP
Info: 17225 MIGRATION GROUPS
Info: 4 ATOMS IN LARGEST MIGRATION GROUP
Info: TOTAL MASS = 301478 amu
Info: TOTAL CHARGE = 1.00115e-05 e
Info: MASS DENSITY = 0.935846 g/cm^3
Info: ATOM DENSITY = 0.0923345 atoms/A^3
Info: ADDED 70656 IMPLICIT EXCLUSIONS
Info: NONBONDED TABLE R-SQUARED SPACING: 0.0625
Info: NONBONDED TABLE SIZE: 769 POINTS
Info: REMOVING COM VELOCITY 0 0 0
TCL: Minimizing for 100 steps
ETITLE: TS BOND ANGLE DIHED IMPRP ELECT VDW BOUNDARY MISC KINETIC TOTAL TEMP POTENTIAL TOTAL3 TEMPAVG PRESSURE GPRESSURE VOLUME PRESSAVG GPRESSAVG
ENERGY: 0 155.4176 1012.2698 2855.7272 0.0000 -154496.7913 207729.2052 0.0468 0.0000 0.0000 57255.8753 0.0000 57255.8753 57255.8753 0.0000 116350.2532 86546.1670 534946.2959 116350.2532 86546.1670
ENERGY: 20 304.7538 935.7910 2893.4663 0.0000 -158672.9396 17936.6599 143.9454 0.0000 0.0000 -136458.3233 0.0000 -136458.3233 -136458.3233 0.0000 16523.9393 -239.4552 534946.2959 16523.9393 -239.4552
ENERGY: 40 198.7424 799.5724 2896.9273 0.0000 -162811.4543 16417.9533 221.3030 0.0000 0.0000 -142276.9559 0.0000 -142276.9559 -142276.9559 0.0000 15011.2700 -2135.4702 534946.2959 15011.2700 -2135.4702
ENERGY: 60 130.5284 715.3440 2898.2166 0.0000 -167496.1562 15446.7541 315.2796 0.0000 0.0000 -147990.0336 0.0000 -147990.0336 -147990.0336 0.0000 13793.8839 -3799.3984 534946.2959 13793.8839 -3799.3984
ENERGY: 80 431.2743 765.6312 2904.3783 0.0000 -169937.5169 15121.1539 372.0119 0.0000 0.0000 -150343.0673 0.0000 -150343.0673 -150343.0673 0.0000 13270.3337 -4577.2411 534946.2959 13270.3337 -4577.2411
ENERGY: 100 119.3898 710.0606 2905.2589 0.0000 -171259.7208 14991.7860 387.3613 0.0000 0.0000 -152145.8641 0.0000 -152145.8641 -152145.8641 0.0000 13056.2637 -4908.1755 534946.2959 13056.2637 -4908.1755
TCL: Setting parameter constraintScaling to 5.0
TCL: Minimizing for 100 steps
ETITLE: TS BOND ANGLE DIHED IMPRP ELECT VDW BOUNDARY MISC KINETIC TOTAL TEMP POTENTIAL TOTAL3 TEMPAVG PRESSURE GPRESSURE VOLUME PRESSAVG GPRESSAVG
ENERGY: 100 119.3898 710.0606 2905.2589 0.0000 -171259.7208 14991.7860 193.6807 0.0000 0.0000 -152339.5448 0.0000 -152339.5448 -152339.5448 0.0000 13672.7700 -23021.8215 534946.2959 13672.7700 -23021.8215
ENERGY: 120 166.4383 692.2065 2910.8261 0.0000 -172914.7723 14833.3494 281.9272 0.0000 0.0000 -154030.0247 0.0000 -154030.0247 -154030.0247 0.0000 13225.2911 -4913.0014 534946.2959 13225.2911 -4913.0014
ENERGY: 140 225.0785 696.9067 2912.9599 0.0000 -174149.2950 14732.6801 321.1763 0.0000 0.0000 -155260.4934 0.0000 -155260.4934 -155260.4934 0.0000 12997.6688 -5265.5895 534946.2959 12997.6688 -5265.5895
ENERGY: 160 270.0292 684.0844 2923.2761 0.0000 -176283.2129 14758.0268 383.2067 0.0000 0.0000 -157264.5896 0.0000 -157264.5896 -157264.5896 0.0000 12739.7134 -5745.1440 534946.2959 12739.7134 -5745.1440
ENERGY: 180 172.7946 724.9526 2929.2185 0.0000 -179191.6338 15053.9980 478.2831 0.0000 0.0000 -159832.3870 0.0000 -159832.3870 -159832.3870 0.0000 12525.4380 -6233.5530 534946.2959 12525.4380 -6233.5530
ENERGY: 200 239.5233 694.1273 2941.3900 0.0000 -181557.3966 15587.2695 546.3137 0.0000 0.0000 -161548.7727 0.0000 -161548.7727 -161548.7727 0.0000 12582.6618 -6431.2722 534946.2959 12582.6618 -6431.2722
TCL: Setting parameter constraintScaling to 2.5
TCL: Minimizing for 100 steps
ETITLE: TS BOND ANGLE DIHED IMPRP ELECT VDW BOUNDARY MISC KINETIC TOTAL TEMP POTENTIAL TOTAL3 TEMPAVG PRESSURE GPRESSURE VOLUME PRESSAVG GPRESSAVG
ENERGY: 200 239.5233 694.1273 2941.3900 0.0000 -181557.3965 15587.2695 273.1568 0.0000 0.0000 -161821.9295 0.0000 -161821.9295 -161821.9295 0.0000 13229.6259 -25662.3279 534946.2959 13229.6259 -25662.3279
ENERGY: 220 251.1419 679.1957 2933.0044 0.0000 -182080.4287 15471.7685 338.0498 0.0000 0.0000 -162407.2685 0.0000 -162407.2685 -162407.2685 0.0000 12969.8334 -6099.3030 534946.2959 12969.8334 -6099.3030
ENERGY: 240 139.6864 665.8238 2928.6381 0.0000 -182460.3693 15494.6804 343.2956 0.0000 0.0000 -162888.2450 0.0000 -162888.2450 -162888.2450 0.0000 13034.9900 -6113.2773 534946.2959 13034.9900 -6113.2773
ENERGY: 260 231.4991 703.3632 2922.3531 0.0000 -183745.2712 15755.3431 379.6306 0.0000 0.0000 -163753.0821 0.0000 -163753.0821 -163753.0821 0.0000 13013.2893 -6246.3748 534946.2959 13013.2893 -6246.3748
ENERGY: 280 202.2864 703.5361 2917.6463 0.0000 -185452.3621 16238.0702 457.8233 0.0000 0.0000 -164932.9998 0.0000 -164932.9998 -164932.9998 0.0000 13139.4086 -6353.3127 534946.2959 13139.4086 -6353.3127
ENERGY: 300 118.2463 636.6817 2916.6381 0.0000 -186048.6630 16429.8884 481.4013 0.0000 0.0000 -165465.8071 0.0000 -165465.8071 -165465.8071 0.0000 13200.9271 -6350.0737 534946.2959 13200.9271 -6350.0737
TCL: Setting parameter constraintScaling to 1.25
TCL: Minimizing for 100 steps
ETITLE: TS BOND ANGLE DIHED IMPRP ELECT VDW BOUNDARY MISC KINETIC TOTAL TEMP POTENTIAL TOTAL3 TEMPAVG PRESSURE GPRESSURE VOLUME PRESSAVG GPRESSAVG
ENERGY: 300 118.2463 636.6817 2916.6381 0.0000 -186048.6630 16429.8884 240.7007 0.0000 0.0000 -165706.5078 0.0000 -165706.5078 -165706.5078 0.0000 13649.4159 -26355.3754 534946.2959 13649.4159 -26355.3754
ENERGY: 320 126.9437 625.0397 2911.3520 0.0000 -186619.5876 16562.6405 273.2518 0.0000 0.0000 -166120.3598 0.0000 -166120.3598 -166120.3598 0.0000 13614.6810 -5990.7821 534946.2959 13614.6810 -5990.7821
ENERGY: 340 226.9631 642.2939 2911.2102 0.0000 -187467.7812 16844.7107 298.4120 0.0000 0.0000 -166544.1914 0.0000 -166544.1914 -166544.1914 0.0000 13669.0065 -6019.2055 534946.2959 13669.0065 -6019.2055
ENERGY: 360 196.6162 681.7487 2913.1812 0.0000 -188046.5440 17019.9498 325.6884 0.0000 0.0000 -166909.3597 0.0000 -166909.3597 -166909.3597 0.0000 13738.0445 -6038.6679 534946.2959 13738.0445 -6038.6679
ENERGY: 380 191.1974 657.2805 2901.5503 0.0000 -188889.0828 17309.9536 350.9666 0.0000 0.0000 -167478.1344 0.0000 -167478.1344 -167478.1344 0.0000 13833.3194 -6030.2004 534946.2959 13833.3194 -6030.2004
ENERGY: 400 141.8868 640.0630 2901.4360 0.0000 -190535.3966 17949.9287 391.4137 0.0000 0.0000 -168510.6684 0.0000 -168510.6684 -168510.6684 0.0000 14100.4227 -5951.2360 534946.2959 14100.4227 -5951.2360
TCL: Setting parameter constraintScaling to 0.625
TCL: Minimizing for 100 steps
ETITLE: TS BOND ANGLE DIHED IMPRP ELECT VDW BOUNDARY MISC KINETIC TOTAL TEMP POTENTIAL TOTAL3 TEMPAVG PRESSURE GPRESSURE VOLUME PRESSAVG GPRESSAVG
ENERGY: 400 141.8868 640.0630 2901.4360 0.0000 -190535.3966 17949.9287 195.7069 0.0000 0.0000 -168706.3753 0.0000 -168706.3753 -168706.3753 0.0000 14398.3914 -26657.2316 534946.2959 14398.3914 -26657.2316
ENERGY: 420 390.0120 829.4364 2901.7554 0.0000 -191898.3343 18348.5407 265.2685 0.0000 0.0000 -169163.3213 0.0000 -169163.3213 -169163.3213 0.0000 14470.7794 -5796.7369 534946.2959 14470.7794 -5796.7369
ENERGY: 440 280.2025 666.1346 2889.1573 0.0000 -192042.1843 18399.1561 263.7090 0.0000 0.0000 -169543.8247 0.0000 -169543.8247 -169543.8247 0.0000 14397.8751 -5792.4783 534946.2959 14397.8751 -5792.4783
ENERGY: 460 148.8161 688.0260 2892.4504 0.0000 -192762.4711 18685.0032 270.9439 0.0000 0.0000 -170077.2315 0.0000 -170077.2315 -170077.2315 0.0000 14670.2280 -5655.8963 534946.2959 14670.2280 -5655.8963
ENERGY: 480 149.0826 633.4333 2886.5983 0.0000 -192950.9259 18748.6809 278.3946 0.0000 0.0000 -170254.7361 0.0000 -170254.7361 -170254.7361 0.0000 14601.1083 -5703.7249 534946.2959 14601.1083 -5703.7249
ENERGY: 500 172.5414 716.5500 2891.4453 0.0000 -193557.2163 18976.8147 302.5891 0.0000 0.0000 -170497.2759 0.0000 -170497.2759 -170497.2759 0.0000 14721.2400 -5689.3812 534946.2959 14721.2400 -5689.3812
TCL: Setting parameter constraintScaling to 0.3125
TCL: Minimizing for 100 steps
ETITLE: TS BOND ANGLE DIHED IMPRP ELECT VDW BOUNDARY MISC KINETIC TOTAL TEMP POTENTIAL TOTAL3 TEMPAVG PRESSURE GPRESSURE VOLUME PRESSAVG GPRESSAVG
ENERGY: 500 172.5414 716.5500 2891.4453 0.0000 -193557.2163 18976.8147 151.2945 0.0000 0.0000 -170648.5704 0.0000 -170648.5704 -170648.5704 0.0000 14914.4285 -26838.5879 534946.2959 14914.4285 -26838.5879
ENERGY: 520 149.3780 654.2535 2882.5464 0.0000 -193854.7431 19091.1617 152.4111 0.0000 0.0000 -170924.9924 0.0000 -170924.9924 -170924.9924 0.0000 14983.6591 -5444.6108 534946.2959 14983.6591 -5444.6108
ENERGY: 540 168.7126 685.0676 2885.4891 0.0000 -194635.2266 19381.6070 172.6039 0.0000 0.0000 -171341.7465 0.0000 -171341.7465 -171341.7465 0.0000 15084.0738 -5427.2339 534946.2959 15084.0738 -5427.2339
ENERGY: 560 228.5484 688.9940 2878.2398 0.0000 -195261.5000 19588.1175 196.3674 0.0000 0.0000 -171681.2329 0.0000 -171681.2329 -171681.2329 0.0000 15075.1063 -5497.9760 534946.2959 15075.1063 -5497.9760
ENERGY: 580 259.5741 699.4008 2876.6920 0.0000 -196231.0225 19995.3804 214.8474 0.0000 0.0000 -172185.1279 0.0000 -172185.1279 -172185.1279 0.0000 15276.4001 -5406.8620 534946.2959 15276.4001 -5406.8620
ENERGY: 600 196.0363 667.0682 2869.5882 0.0000 -197224.8679 20428.4252 228.3211 0.0000 0.0000 -172835.4289 0.0000 -172835.4289 -172835.4289 0.0000 15542.8258 -5270.6059 534946.2959 15542.8258 -5270.6059
TCL: Setting parameter constraintScaling to 0.15625
TCL: Minimizing for 100 steps
ETITLE: TS BOND ANGLE DIHED IMPRP ELECT VDW BOUNDARY MISC KINETIC TOTAL TEMP POTENTIAL TOTAL3 TEMPAVG PRESSURE GPRESSURE VOLUME PRESSAVG GPRESSAVG
ENERGY: 600 196.0363 667.0682 2869.5882 0.0000 -197224.8679 20428.4252 114.1605 0.0000 0.0000 -172949.5895 0.0000 -172949.5895 -172949.5895 0.0000 15667.5443 -26966.0681 534946.2959 15667.5443 -26966.0681
ENERGY: 620 172.5831 647.0786 2861.5564 0.0000 -197376.8413 20466.3638 118.7694 0.0000 0.0000 -173110.4900 0.0000 -173110.4900 -173110.4900 0.0000 15629.1699 -5185.5314 534946.2959 15629.1699 -5185.5314
ENERGY: 640 289.5855 673.6791 2857.1596 0.0000 -198032.8479 20684.2452 130.9383 0.0000 0.0000 -173397.2403 0.0000 -173397.2403 -173397.2403 0.0000 15647.5536 -5219.2686 534946.2959 15647.5536 -5219.2686
ENERGY: 660 192.0254 657.8434 2852.0129 0.0000 -198613.3838 20894.9948 139.3276 0.0000 0.0000 -173877.1799 0.0000 -173877.1799 -173877.1799 0.0000 15792.1562 -5154.7107 534946.2959 15792.1562 -5154.7107
ENERGY: 680 232.6719 696.7020 2856.4477 0.0000 -199077.1384 21062.9224 140.0321 0.0000 0.0000 -174088.3623 0.0000 -174088.3623 -174088.3623 0.0000 15946.8939 -5098.1804 534946.2959 15946.8939 -5098.1804
ENERGY: 700 188.1976 677.8323 2857.6642 0.0000 -199447.2278 21226.7996 141.3811 0.0000 0.0000 -174355.3529 0.0000 -174355.3529 -174355.3529 0.0000 16027.1721 -5038.2687 534946.2959 16027.1721 -5038.2687
TCL: Setting parameter constraintScaling to 0.078125
TCL: Minimizing for 100 steps
ETITLE: TS BOND ANGLE DIHED IMPRP ELECT VDW BOUNDARY MISC KINETIC TOTAL TEMP POTENTIAL TOTAL3 TEMPAVG PRESSURE GPRESSURE VOLUME PRESSAVG GPRESSAVG
ENERGY: 700 188.1976 677.8323 2857.6642 0.0000 -199447.2278 21226.7996 70.6905 0.0000 0.0000 -174426.0434 0.0000 -174426.0434 -174426.0434 0.0000 16099.4239 -27060.3994 534946.2959 16099.4239 -27060.3994
ENERGY: 720 160.2728 652.8799 2847.7715 0.0000 -199578.2849 21246.9309 73.5503 0.0000 0.0000 -174596.8795 0.0000 -174596.8795 -174596.8795 0.0000 16063.1701 -5001.4742 534946.2959 16063.1701 -5001.4742
ENERGY: 740 162.1703 657.4791 2840.6312 0.0000 -199848.9467 21341.1272 78.2386 0.0000 0.0000 -174769.3004 0.0000 -174769.3004 -174769.3004 0.0000 16089.5702 -5020.4166 534946.2959 16089.5702 -5020.4166
ENERGY: 760 170.0721 662.6547 2840.3570 0.0000 -200229.1954 21482.9809 83.8050 0.0000 0.0000 -174989.3258 0.0000 -174989.3258 -174989.3258 0.0000 16139.8367 -5009.7560 534946.2959 16139.8367 -5009.7560
ENERGY: 780 159.8203 657.8842 2841.0991 0.0000 -200398.5651 21528.8741 82.2510 0.0000 0.0000 -175128.6364 0.0000 -175128.6364 -175128.6364 0.0000 16167.4351 -4991.4643 534946.2959 16167.4351 -4991.4643
ENERGY: 800 154.9498 670.7688 2854.0882 0.0000 -200789.2771 21717.3226 82.1680 0.0000 0.0000 -175309.9798 0.0000 -175309.9798 -175309.9798 0.0000 16339.2172 -4885.5716 534946.2959 16339.2172 -4885.5716
TCL: Setting parameter constraintScaling to 0.0390625
TCL: Minimizing for 100 steps
ETITLE: TS BOND ANGLE DIHED IMPRP ELECT VDW BOUNDARY MISC KINETIC TOTAL TEMP POTENTIAL TOTAL3 TEMPAVG PRESSURE GPRESSURE VOLUME PRESSAVG GPRESSAVG
ENERGY: 800 154.9498 670.7688 2854.0882 0.0000 -200789.2771 21717.3226 41.0840 0.0000 0.0000 -175351.0637 0.0000 -175351.0637 -175351.0637 0.0000 16378.7165 -27107.6802 534946.2959 16378.7165 -27107.6802
ENERGY: 820 169.4891 667.0114 2833.7482 0.0000 -201061.0739 21771.1642 44.6276 0.0000 0.0000 -175575.0334 0.0000 -175575.0334 -175575.0334 0.0000 16345.0240 -4915.3198 534946.2959 16345.0240 -4915.3198
ENERGY: 840 187.6948 671.1013 2834.0498 0.0000 -201355.3914 21906.5218 47.3161 0.0000 0.0000 -175708.7075 0.0000 -175708.7075 -175708.7075 0.0000 16347.8003 -4915.0039 534946.2959 16347.8003 -4915.0039
ENERGY: 860 173.8283 678.9479 2831.6349 0.0000 -202081.1821 22183.8394 51.1137 0.0000 0.0000 -176161.8180 0.0000 -176161.8180 -176161.8180 0.0000 16522.3661 -4845.1396 534946.2959 16522.3661 -4845.1396
ENERGY: 880 180.9813 672.9597 2827.2231 0.0000 -202811.8946 22499.5234 54.2957 0.0000 0.0000 -176576.9114 0.0000 -176576.9114 -176576.9114 0.0000 16698.8464 -4753.0859 534946.2959 16698.8464 -4753.0859
ENERGY: 900 164.6487 663.6522 2822.9745 0.0000 -202936.8746 22546.3719 54.5796 0.0000 0.0000 -176684.6477 0.0000 -176684.6477 -176684.6477 0.0000 16713.2930 -4750.1945 534946.2959 16713.2930 -4750.1945
TCL: Setting parameter constraintScaling to 0.01953125
TCL: Minimizing for 100 steps
ETITLE: TS BOND ANGLE DIHED IMPRP ELECT VDW BOUNDARY MISC KINETIC TOTAL TEMP POTENTIAL TOTAL3 TEMPAVG PRESSURE GPRESSURE VOLUME PRESSAVG GPRESSAVG
ENERGY: 900 164.6487 663.6522 2822.9745 0.0000 -202936.8746 22546.3719 27.2898 0.0000 0.0000 -176711.9375 0.0000 -176711.9375 -176711.9375 0.0000 16736.3585 -27259.5539 534946.2959 16736.3585 -27259.5539
ENERGY: 920 180.4903 659.8688 2821.8026 0.0000 -203204.2575 22647.4026 28.0203 0.0000 0.0000 -176866.6729 0.0000 -176866.6729 -176866.6729 0.0000 16780.5819 -4716.3206 534946.2959 16780.5819 -4716.3206
ENERGY: 940 160.7685 655.7044 2819.3983 0.0000 -203641.4999 22830.7194 28.9680 0.0000 0.0000 -177145.9413 0.0000 -177145.9413 -177145.9413 0.0000 16900.8244 -4651.0203 534946.2959 16900.8244 -4651.0203
ENERGY: 960 170.3347 658.9994 2817.7806 0.0000 -203811.3273 22898.4824 29.6454 0.0000 0.0000 -177236.0848 0.0000 -177236.0848 -177236.0848 0.0000 16909.2063 -4663.8793 534946.2959 16909.2063 -4663.8793
ENERGY: 980 172.2056 653.1813 2814.8011 0.0000 -204145.2237 23040.1374 30.5274 0.0000 0.0000 -177434.3708 0.0000 -177434.3708 -177434.3708 0.0000 16995.6431 -4616.8841 534946.2959 16995.6431 -4616.8841
ENERGY: 1000 162.4500 658.5554 2813.2577 0.0000 -204709.4790 23296.3303 32.1085 0.0000 0.0000 -177746.7771 0.0000 -177746.7771 -177746.7771 0.0000 17129.2153 -4545.0341 534946.2959 17129.2153 -4545.0341
TCL: Setting parameter constraintScaling to 0
TCL: Minimizing for 5000 steps
ETITLE: TS BOND ANGLE DIHED IMPRP ELECT VDW BOUNDARY MISC KINETIC TOTAL TEMP POTENTIAL TOTAL3 TEMPAVG PRESSURE GPRESSURE VOLUME PRESSAVG GPRESSAVG
ENERGY: 1000 162.4500 658.5554 2813.2577 0.0000 -204709.4790 23296.3303 0.0000 0.0000 0.0000 -177778.8857 0.0000 -177778.8857 -177778.8857 0.0000 17155.0308 -27265.7854 534946.2959 17155.0308 -27265.7854
ENERGY: 2000 170.1508 660.7330 2800.8151 0.0000 -214487.0921 27588.4899 0.0000 0.0000 0.0000 -183266.9033 0.0000 -183266.9033 -183266.9033 0.0000 19397.2828 -3379.7205 534946.2959 19397.2828 -3379.7205
ENERGY: 3000 169.4748 667.4064 2793.6732 0.0000 -217403.8994 28825.4599 0.0000 0.0000 0.0000 -184947.8851 0.0000 -184947.8851 -184947.8851 0.0000 20066.8212 -3015.6753 534946.2959 20066.8212 -3015.6753
ENERGY: 4000 167.4735 664.1717 2787.7974 0.0000 -218653.9542 29313.4719 0.0000 0.0000 0.0000 -185721.0397 0.0000 -185721.0397 -185721.0397 0.0000 20325.7040 -2882.9904 534946.2959 20325.7040 -2882.9904
ENERGY: 5000 166.2129 663.2228 2784.4384 0.0000 -219364.6963 29640.9097 0.0000 0.0000 0.0000 -186109.9125 0.0000 -186109.9125 -186109.9125 0.0000 20499.7710 -2790.2514 534946.2959 20499.7710 -2790.2514
ENERGY: 6000 165.9398 664.6115 2781.9663 0.0000 -219839.3714 29823.1518 0.0000 0.0000 0.0000 -186403.7020 0.0000 -186403.7020 -186403.7020 0.0000 20599.3049 -2734.3749 534946.2959 20599.3049 -2734.3749
