Info: SIMULATION PARAMETERS:
Info: TIMESTEP               2
Info: NUMBER OF STEPS        0
Info: STEPS PER CYCLE        10
Info: PERIODIC CELL BASIS 1  72.449 0 0
Info: PERIODIC CELL BASIS 2  0 93.247 0
Info: PERIODIC CELL BASIS 3  0 0 79.185
Info: PERIODIC CELL CENTER   -0.248 -0.156 -0.047
Info: WRAPPING WATERS AROUND PERIODIC BOUNDARIES ON OUTPUT.
Info: WRAPPING ALL CLUSTERS AROUND PERIODIC BOUNDARIES ON OUTPUT.
Info: FIRST LDB TIMESTEP     50
Info: LAST LDB TIMESTEP     -1
Info: HOM BACKGROUND SCALING 1
Info: PME BACKGROUND SCALING 1
Info: MIN ATOMS PER PATCH    40
Info: INITIAL TEMPERATURE    0
Info: CENTER OF MASS MOVING INITIALLY? NO
Info: DIELECTRIC             1
Info: EXCLUDE                SCALED ONE-FOUR
Info: 1-4 ELECTROSTATICS SCALED BY 0.833333
Info: MODIFIED 1-4 VDW PARAMETERS WILL BE USED
Info: NO DCD TRAJECTORY OUTPUT
Info: NO EXTENDED SYSTEM TRAJECTORY OUTPUT
Info: NO VELOCITY DCD OUTPUT
Info: NO FORCE DCD OUTPUT
Info: OUTPUT FILENAME        ../replicas/rep13/equilibration/eq0
Info: NO RESTART FILE
Info: SWITCHING ACTIVE
Info: SWITCHING ON           10
Info: SWITCHING OFF          12
Info: PAIRLIST DISTANCE      13.5
Info: PAIRLIST SHRINK RATE   0.01
Info: PAIRLIST GROW RATE     0.01
Info: PAIRLIST TRIGGER       0.3
Info: PAIRLISTS PER CYCLE    2
Info: PAIRLISTS ENABLED
Info: MARGIN                 0
Info: HYDROGEN GROUP CUTOFF  2.5
Info: PATCH DIMENSION        16
Info: ENERGY OUTPUT STEPS    500
Info: CROSSTERM ENERGY INCLUDED IN DIHEDRAL
Info: TIMING OUTPUT STEPS    5000
Info: PRESSURE OUTPUT STEPS  500
Info: HARMONIC CONSTRAINTS ACTIVE
Info: HARMONIC CONS EXP      2
Info: HARMONIC CONS SCALING  10
Info: CONJUGATE GRADIENT MINIMIZATION ACTIVE
Info: LINE MINIMIZATION GOAL = 0.001
Info: BABY STEP SIZE = 0.01
Info: TINY STEP SIZE = 1e-06
Info: PARTICLE MESH EWALD (PME) ACTIVE
Info: PME TOLERANCE               1e-06
Info: PME EWALD COEFFICIENT       0.257952
Info: PME INTERPOLATION ORDER     4
Info: PME GRID DIMENSIONS         80 96 80
Info: PME MAXIMUM GRID SPACING    1
Info: FULL ELECTROSTATIC EVALUATION FREQUENCY      2
Info: USING VERLET I (r-RESPA) MTS SCHEME.
Info: C1 SPLITTING OF LONG RANGE ELECTROSTATICS
Info: PLACING ATOMS IN PATCHES BY HYDROGEN GROUPS
Info: RIGID BONDS TO HYDROGEN : ALL
Info:         ERROR TOLERANCE : 1e-05
Info:          MAX ITERATIONS : 100
Info: RIGID WATER USING SETTLE ALGORITHM
Info: RANDOM NUMBER SEED     1503691733
Info: USE HYDROGEN BONDS?    NO
Info: Using AMBER format force field!
Info: AMBER PARM FILE        ../build/complex.top
Info: COORDINATE PDB         ../build/complex.pdb
Info: Exclusions in PARM file will be ignored!
Info: SCNB (VDW SCALING)     2
Info: USING ARITHMETIC MEAN TO COMBINE L-J SIGMA PARAMETERS
Info: SUMMARY OF PARAMETERS:
Info: 71 BONDS
Info: 145 ANGLES
Info:   145 HARMONIC
Info:   0 COSINE-BASED
Info: 76 DIHEDRAL
Info: 0 IMPROPER
Info: 0 CROSSTERM
Info: 0 VDW
Info: 190 VDW_PAIRS
Info: 0 NBTHOLE_PAIRS
Info: STRUCTURE SUMMARY:
Info: 49394 ATOMS
Info: 49448 BONDS
Info: 8698 ANGLES
Info: 18780 DIHEDRALS
Info: 0 IMPROPERS
Info: 0 CROSSTERMS
Info: 0 EXCLUSIONS
Info: 2336 CONSTRAINTS
Info: 47058 RIGID BONDS
Info: 101124 DEGREES OF FREEDOM
Info: 17225 HYDROGEN GROUPS
Info: 4 ATOMS IN LARGEST HYDROGEN GROUP
Info: 17225 MIGRATION GROUPS
Info: 4 ATOMS IN LARGEST MIGRATION GROUP
Info: TOTAL MASS = 301478 amu
Info: TOTAL CHARGE = 1.00115e-05 e
Info: MASS DENSITY = 0.935846 g/cm^3
Info: ATOM DENSITY = 0.0923345 atoms/A^3
Info: ADDED 70656 IMPLICIT EXCLUSIONS
Info: NONBONDED TABLE R-SQUARED SPACING: 0.0625
Info: NONBONDED TABLE SIZE: 769 POINTS
Info: REMOVING COM VELOCITY 0 0 0
TCL: Minimizing for 100 steps
ETITLE: TS BOND ANGLE DIHED IMPRP ELECT VDW BOUNDARY MISC KINETIC TOTAL TEMP POTENTIAL TOTAL3 TEMPAVG PRESSURE GPRESSURE VOLUME PRESSAVG GPRESSAVG
ENERGY: 0 155.4176 1012.2698 2855.7272 0.0000 -154496.7912 207729.2052 0.0468 0.0000 0.0000 57255.8754 0.0000 57255.8754 57255.8754 0.0000 116350.2532 86546.1670 534946.2959 116350.2532 86546.1670
ENERGY: 20 304.7554 935.7912 2893.4663 0.0000 -158672.9407 17936.6593 143.9454 0.0000 0.0000 -136458.3231 0.0000 -136458.3231 -136458.3231 0.0000 16523.9386 -239.4560 534946.2959 16523.9386 -239.4560
ENERGY: 40 198.7438 799.5727 2896.9273 0.0000 -162811.4529 16417.9538 221.3030 0.0000 0.0000 -142276.9523 0.0000 -142276.9523 -142276.9523 0.0000 15011.2704 -2135.4697 534946.2959 15011.2704 -2135.4697
ENERGY: 60 130.5283 715.3440 2898.2166 0.0000 -167496.1554 15446.7542 315.2796 0.0000 0.0000 -147990.0328 0.0000 -147990.0328 -147990.0328 0.0000 13793.8840 -3799.3982 534946.2959 13793.8840 -3799.3982
ENERGY: 80 431.2728 765.6307 2904.3785 0.0000 -169937.5261 15121.1527 372.0122 0.0000 0.0000 -150343.0793 0.0000 -150343.0793 -150343.0793 0.0000 13270.3316 -4577.2436 534946.2959 13270.3316 -4577.2436
ENERGY: 100 119.3872 710.0602 2905.2590 0.0000 -171259.7174 14991.7864 387.3614 0.0000 0.0000 -152145.8633 0.0000 -152145.8633 -152145.8633 0.0000 13056.2645 -4908.1738 534946.2959 13056.2645 -4908.1738
TCL: Setting parameter constraintScaling to 5.0
TCL: Minimizing for 100 steps
ETITLE: TS BOND ANGLE DIHED IMPRP ELECT VDW BOUNDARY MISC KINETIC TOTAL TEMP POTENTIAL TOTAL3 TEMPAVG PRESSURE GPRESSURE VOLUME PRESSAVG GPRESSAVG
ENERGY: 100 119.3872 710.0602 2905.2590 0.0000 -171259.7174 14991.7864 193.6807 0.0000 0.0000 -152339.5439 0.0000 -152339.5439 -152339.5439 0.0000 13672.7708 -23021.8203 534946.2959 13672.7708 -23021.8203
ENERGY: 120 108.8847 687.5848 2912.9267 0.0000 -172865.8796 14798.2708 281.1916 0.0000 0.0000 -154077.0209 0.0000 -154077.0209 -154077.0209 0.0000 13218.2552 -4906.0158 534946.2959 13218.2552 -4906.0158
ENERGY: 140 309.4504 708.8713 2913.8025 0.0000 -174236.6246 14731.4839 326.6380 0.0000 0.0000 -155246.3783 0.0000 -155246.3783 -155246.3783 0.0000 12971.5311 -5303.2332 534946.2959 12971.5311 -5303.2332
ENERGY: 160 265.1444 683.0882 2923.1685 0.0000 -176274.7435 14757.3014 382.8672 0.0000 0.0000 -157263.1739 0.0000 -157263.1739 -157263.1739 0.0000 12741.0338 -5742.9612 534946.2959 12741.0338 -5742.9612
ENERGY: 180 268.9524 744.0940 2928.5659 0.0000 -178994.9037 15023.4309 473.2762 0.0000 0.0000 -159556.5842 0.0000 -159556.5842 -159556.5842 0.0000 12521.6314 -6223.8670 534946.2959 12521.6314 -6223.8670
ENERGY: 200 238.8395 694.0984 2941.3588 0.0000 -181555.9463 15586.9759 546.2604 0.0000 0.0000 -161548.4134 0.0000 -161548.4134 -161548.4134 0.0000 12582.6395 -6430.9402 534946.2959 12582.6395 -6430.9402
TCL: Setting parameter constraintScaling to 2.5
TCL: Minimizing for 100 steps
ETITLE: TS BOND ANGLE DIHED IMPRP ELECT VDW BOUNDARY MISC KINETIC TOTAL TEMP POTENTIAL TOTAL3 TEMPAVG PRESSURE GPRESSURE VOLUME PRESSAVG GPRESSAVG
ENERGY: 200 238.8395 694.0984 2941.3588 0.0000 -181555.9463 15586.9759 273.1302 0.0000 0.0000 -161821.5436 0.0000 -161821.5436 -161821.5436 0.0000 13229.5396 -25661.7189 534946.2959 13229.5396 -25661.7189
ENERGY: 220 246.7448 677.8712 2933.0086 0.0000 -182076.9706 15471.6876 337.7603 0.0000 0.0000 -162409.8980 0.0000 -162409.8980 -162409.8980 0.0000 12971.1603 -6097.1632 534946.2959 12971.1603 -6097.1632
ENERGY: 240 140.4414 666.4876 2928.6084 0.0000 -182464.9107 15494.3562 343.7033 0.0000 0.0000 -162891.3139 0.0000 -162891.3139 -162891.3139 0.0000 13034.2069 -6114.7731 534946.2959 13034.2069 -6114.7731
ENERGY: 260 232.0262 701.5815 2922.5177 0.0000 -183742.9222 15756.1468 378.8759 0.0000 0.0000 -163751.7741 0.0000 -163751.7741 -163751.7741 0.0000 13014.0777 -6244.3772 534946.2959 13014.0777 -6244.3772
ENERGY: 280 203.3573 703.4089 2917.7811 0.0000 -185459.5400 16242.4763 456.8790 0.0000 0.0000 -164935.6375 0.0000 -164935.6375 -164935.6375 0.0000 13144.0528 -6349.7147 534946.2959 13144.0528 -6349.7147
ENERGY: 300 196.1550 659.0700 2920.7980 0.0000 -186571.2500 16638.2989 514.9005 0.0000 0.0000 -165642.0276 0.0000 -165642.0276 -165642.0276 0.0000 13238.3791 -6362.9464 534946.2959 13238.3791 -6362.9464
TCL: Setting parameter constraintScaling to 1.25
TCL: Minimizing for 100 steps
ETITLE: TS BOND ANGLE DIHED IMPRP ELECT VDW BOUNDARY MISC KINETIC TOTAL TEMP POTENTIAL TOTAL3 TEMPAVG PRESSURE GPRESSURE VOLUME PRESSAVG GPRESSAVG
ENERGY: 300 196.1550 659.0700 2920.7980 0.0000 -186571.2500 16638.2989 257.4502 0.0000 0.0000 -165899.4779 0.0000 -165899.4779 -165899.4779 0.0000 13701.0753 -26428.7489 534946.2959 13701.0753 -26428.7489
ENERGY: 320 155.0976 660.3089 2909.1868 0.0000 -187272.7415 16811.3499 287.6483 0.0000 0.0000 -166449.1501 0.0000 -166449.1501 -166449.1501 0.0000 13709.0224 -5967.5052 534946.2959 13709.0224 -5967.5052
ENERGY: 340 164.8377 655.8785 2910.1576 0.0000 -187797.0825 16973.1677 309.3972 0.0000 0.0000 -166783.6438 0.0000 -166783.6438 -166783.6438 0.0000 13769.0547 -5970.3097 534946.2959 13769.0547 -5970.3097
ENERGY: 360 238.4951 657.7531 2912.5154 0.0000 -188899.3992 17366.6437 348.6754 0.0000 0.0000 -167375.3165 0.0000 -167375.3165 -167375.3165 0.0000 13843.3277 -6008.8087 534946.2959 13843.3277 -6008.8087
ENERGY: 380 149.7877 645.5797 2900.0348 0.0000 -189107.6319 17424.0433 345.9966 0.0000 0.0000 -167642.1899 0.0000 -167642.1899 -167642.1899 0.0000 13924.2779 -5964.1557 534946.2959 13924.2779 -5964.1557
ENERGY: 400 213.5124 690.5273 2906.5980 0.0000 -190135.3664 17739.8180 370.2080 0.0000 0.0000 -168214.7027 0.0000 -168214.7027 -168214.7027 0.0000 13989.1282 -6013.8916 534946.2959 13989.1282 -6013.8916
TCL: Setting parameter constraintScaling to 0.625
TCL: Minimizing for 100 steps
ETITLE: TS BOND ANGLE DIHED IMPRP ELECT VDW BOUNDARY MISC KINETIC TOTAL TEMP POTENTIAL TOTAL3 TEMPAVG PRESSURE GPRESSURE VOLUME PRESSAVG GPRESSAVG
ENERGY: 400 213.5124 690.5273 2906.5980 0.0000 -190135.3664 17739.8180 185.1040 0.0000 0.0000 -168399.8067 0.0000 -168399.8067 -168399.8067 0.0000 14277.2198 -26689.3107 534946.2959 14277.2198 -26689.3107
ENERGY: 420 136.4045 635.3150 2897.0196 0.0000 -190299.4884 17791.8386 191.2135 0.0000 0.0000 -168647.6972 0.0000 -168647.6972 -168647.6972 0.0000 14322.4115 -5703.1356 534946.2959 14322.4115 -5703.1356
ENERGY: 440 187.9679 674.3340 2899.9767 0.0000 -191166.5578 18102.9943 229.7827 0.0000 0.0000 -169071.5022 0.0000 -169071.5022 -169071.5022 0.0000 14368.3105 -5744.2481 534946.2959 14368.3105 -5744.2481
ENERGY: 460 207.0322 678.8537 2891.3230 0.0000 -192097.4327 18441.3733 265.2881 0.0000 0.0000 -169613.5623 0.0000 -169613.5623 -169613.5623 0.0000 14481.0881 -5744.5072 534946.2959 14481.0881 -5744.5072
ENERGY: 480 155.0529 658.1101 2892.2461 0.0000 -192197.0356 18461.9825 265.8040 0.0000 0.0000 -169763.8400 0.0000 -169763.8400 -169763.8400 0.0000 14485.1526 -5745.2188 534946.2959 14485.1526 -5745.2188
ENERGY: 500 163.9505 706.4649 2895.4426 0.0000 -192888.1769 18708.6126 269.9613 0.0000 0.0000 -170143.7450 0.0000 -170143.7450 -170143.7450 0.0000 14629.6152 -5685.2335 534946.2959 14629.6152 -5685.2335
TCL: Setting parameter constraintScaling to 0.3125
TCL: Minimizing for 100 steps
ETITLE: TS BOND ANGLE DIHED IMPRP ELECT VDW BOUNDARY MISC KINETIC TOTAL TEMP POTENTIAL TOTAL3 TEMPAVG PRESSURE GPRESSURE VOLUME PRESSAVG GPRESSAVG
ENERGY: 500 163.9505 706.4649 2895.4426 0.0000 -192888.1769 18708.6126 134.9806 0.0000 0.0000 -170278.7256 0.0000 -170278.7256 -170278.7256 0.0000 14812.9633 -26804.4507 534946.2959 14812.9633 -26804.4507
ENERGY: 520 220.7072 713.1702 2902.9436 0.0000 -193551.5238 18970.4092 154.8485 0.0000 0.0000 -170589.4450 0.0000 -170589.4450 -170589.4450 0.0000 14860.4495 -5525.0069 534946.2959 14860.4495 -5525.0069
ENERGY: 540 164.8171 647.6064 2883.5661 0.0000 -193684.7671 18993.9478 157.8153 0.0000 0.0000 -170837.0143 0.0000 -170837.0143 -170837.0143 0.0000 14863.9202 -5527.4387 534946.2959 14863.9202 -5527.4387
ENERGY: 560 418.4548 770.4203 2887.1217 0.0000 -194865.5760 19440.2839 190.3404 0.0000 0.0000 -171158.9548 0.0000 -171158.9548 -171158.9548 0.0000 15033.5794 -5512.5201 534946.2959 15033.5794 -5512.5201
ENERGY: 580 196.3112 665.3242 2879.7535 0.0000 -194758.5665 19395.0595 183.0668 0.0000 0.0000 -171439.0512 0.0000 -171439.0512 -171439.0512 0.0000 15010.4899 -5489.2231 534946.2959 15010.4899 -5489.2231
ENERGY: 600 169.8099 700.9168 2890.1580 0.0000 -195203.9023 19587.9763 186.5849 0.0000 0.0000 -171668.4564 0.0000 -171668.4564 -171668.4564 0.0000 15140.2518 -5432.9522 534946.2959 15140.2518 -5432.9522
TCL: Setting parameter constraintScaling to 0.15625
TCL: Minimizing for 100 steps
ETITLE: TS BOND ANGLE DIHED IMPRP ELECT VDW BOUNDARY MISC KINETIC TOTAL TEMP POTENTIAL TOTAL3 TEMPAVG PRESSURE GPRESSURE VOLUME PRESSAVG GPRESSAVG
ENERGY: 600 169.8099 700.9168 2890.1580 0.0000 -195203.9023 19587.9763 93.2924 0.0000 0.0000 -171761.7488 0.0000 -171761.7488 -171761.7488 0.0000 15251.3561 -26897.6294 534946.2959 15251.3561 -26897.6294
ENERGY: 620 154.7857 648.0894 2876.3478 0.0000 -195367.3155 19609.8581 97.4401 0.0000 0.0000 -171980.7945 0.0000 -171980.7945 -171980.7945 0.0000 15224.2976 -5348.8400 534946.2959 15224.2976 -5348.8400
ENERGY: 640 168.3969 662.5112 2867.8515 0.0000 -196585.3447 20071.5151 118.4889 0.0000 0.0000 -172696.5811 0.0000 -172696.5811 -172696.5811 0.0000 15388.1416 -5320.6162 534946.2959 15388.1416 -5320.6162
ENERGY: 660 186.9145 683.0451 2864.8454 0.0000 -197225.8271 20343.7515 125.3540 0.0000 0.0000 -173021.9167 0.0000 -173021.9167 -173021.9167 0.0000 15565.1746 -5239.8959 534946.2959 15565.1746 -5239.8959
ENERGY: 680 157.8701 657.6693 2859.3159 0.0000 -197783.5044 20565.8203 132.1757 0.0000 0.0000 -173410.6531 0.0000 -173410.6531 -173410.6531 0.0000 15658.7170 -5203.8111 534946.2959 15658.7170 -5203.8111
ENERGY: 700 158.2486 658.7781 2855.5005 0.0000 -197895.7163 20593.9171 133.9562 0.0000 0.0000 -173495.3158 0.0000 -173495.3158 -173495.3158 0.0000 15672.5011 -5206.2821 534946.2959 15672.5011 -5206.2821
TCL: Setting parameter constraintScaling to 0.078125
TCL: Minimizing for 100 steps
ETITLE: TS BOND ANGLE DIHED IMPRP ELECT VDW BOUNDARY MISC KINETIC TOTAL TEMP POTENTIAL TOTAL3 TEMPAVG PRESSURE GPRESSURE VOLUME PRESSAVG GPRESSAVG
ENERGY: 700 158.2486 658.7781 2855.5005 0.0000 -197895.7163 20593.9171 66.9781 0.0000 0.0000 -173562.2939 0.0000 -173562.2939 -173562.2939 0.0000 15741.6001 -27044.6156 534946.2959 15741.6001 -27044.6156
ENERGY: 720 187.9121 669.6655 2855.0819 0.0000 -198194.5518 20704.4705 69.8160 0.0000 0.0000 -173707.6058 0.0000 -173707.6058 -173707.6058 0.0000 15769.5524 -5135.8156 534946.2959 15769.5524 -5135.8156
ENERGY: 740 253.9172 661.2344 2846.0207 0.0000 -199094.4529 21039.9134 77.9522 0.0000 0.0000 -174215.4150 0.0000 -174215.4150 -174215.4150 0.0000 15909.0256 -5099.3291 534946.2959 15909.0256 -5099.3291
ENERGY: 760 161.8945 652.0119 2842.1039 0.0000 -199600.8227 21225.6195 81.5617 0.0000 0.0000 -174637.6312 0.0000 -174637.6312 -174637.6312 0.0000 16035.8487 -5041.0882 534946.2959 16035.8487 -5041.0882
ENERGY: 780 203.3929 674.3962 2842.9993 0.0000 -199912.0930 21349.6118 83.8712 0.0000 0.0000 -174757.8217 0.0000 -174757.8217 -174757.8217 0.0000 16054.7803 -5049.3946 534946.2959 16054.7803 -5049.3946
ENERGY: 800 159.2845 665.9119 2837.1387 0.0000 -200492.6520 21577.4118 87.6815 0.0000 0.0000 -175165.2236 0.0000 -175165.2236 -175165.2236 0.0000 16201.0638 -4983.9338 534946.2959 16201.0638 -4983.9338
TCL: Setting parameter constraintScaling to 0.0390625
TCL: Minimizing for 100 steps
ETITLE: TS BOND ANGLE DIHED IMPRP ELECT VDW BOUNDARY MISC KINETIC TOTAL TEMP POTENTIAL TOTAL3 TEMPAVG PRESSURE GPRESSURE VOLUME PRESSAVG GPRESSAVG
ENERGY: 800 159.2845 665.9119 2837.1387 0.0000 -200492.6520 21577.4118 43.8408 0.0000 0.0000 -175209.0644 0.0000 -175209.0644 -175209.0644 0.0000 16242.1036 -27167.4883 534946.2959 16242.1036 -27167.4883
ENERGY: 820 170.5406 673.4311 2837.5214 0.0000 -200698.7304 21631.3643 45.1490 0.0000 0.0000 -175340.7240 0.0000 -175340.7240 -175340.7240 0.0000 16277.6963 -4931.7447 534946.2959 16277.6963 -4931.7447
ENERGY: 840 172.5953 658.4404 2835.1784 0.0000 -200837.7979 21682.8346 45.9436 0.0000 0.0000 -175442.8056 0.0000 -175442.8056 -175442.8056 0.0000 16270.7014 -4939.1997 534946.2959 16270.7014 -4939.1997
ENERGY: 860 161.5181 650.7329 2831.9710 0.0000 -201074.5436 21776.0827 47.1108 0.0000 0.0000 -175607.1282 0.0000 -175607.1282 -175607.1282 0.0000 16335.3294 -4915.5399 534946.2959 16335.3294 -4915.5399
ENERGY: 880 176.3570 673.1974 2834.9788 0.0000 -201284.1255 21848.9596 48.0921 0.0000 0.0000 -175702.5405 0.0000 -175702.5405 -175702.5405 0.0000 16342.8217 -4919.8494 534946.2959 16342.8217 -4919.8494
ENERGY: 900 181.9580 668.6398 2827.2570 0.0000 -201804.2976 22058.6725 50.2366 0.0000 0.0000 -176017.5338 0.0000 -176017.5338 -176017.5338 0.0000 16482.2410 -4857.4445 534946.2959 16482.2410 -4857.4445
TCL: Setting parameter constraintScaling to 0.01953125
TCL: Minimizing for 100 steps
ETITLE: TS BOND ANGLE DIHED IMPRP ELECT VDW BOUNDARY MISC KINETIC TOTAL TEMP POTENTIAL TOTAL3 TEMPAVG PRESSURE GPRESSURE VOLUME PRESSAVG GPRESSAVG
ENERGY: 900 181.9580 668.6398 2827.2570 0.0000 -201804.2976 22058.6725 25.1183 0.0000 0.0000 -176042.6520 0.0000 -176042.6520 -176042.6520 0.0000 16504.5174 -27221.6115 534946.2959 16504.5174 -27221.6115
ENERGY: 920 168.2719 666.8334 2830.4328 0.0000 -202102.7987 22173.9485 26.0782 0.0000 0.0000 -176237.2339 0.0000 -176237.2339 -176237.2339 0.0000 16552.9769 -4826.6098 534946.2959 16552.9769 -4826.6098
ENERGY: 940 182.4878 660.7901 2823.5782 0.0000 -202429.0903 22304.1100 26.9865 0.0000 0.0000 -176431.1377 0.0000 -176431.1377 -176431.1377 0.0000 16597.2067 -4802.7069 534946.2959 16597.2067 -4802.7069
ENERGY: 960 163.5767 654.1997 2821.8887 0.0000 -202618.6166 22378.6111 27.4991 0.0000 0.0000 -176572.8413 0.0000 -176572.8413 -176572.8413 0.0000 16643.7117 -4787.2496 534946.2959 16643.7117 -4787.2496
ENERGY: 980 211.7892 742.2911 2838.3628 0.0000 -203282.4100 22666.0359 28.9221 0.0000 0.0000 -176795.0088 0.0000 -176795.0088 -176795.0088 0.0000 16812.5848 -4717.2628 534946.2959 16812.5848 -4717.2628
ENERGY: 1000 166.5818 650.3452 2818.6241 0.0000 -203465.5196 22740.4718 29.4214 0.0000 0.0000 -177060.0753 0.0000 -177060.0753 -177060.0753 0.0000 16827.5314 -4695.0290 534946.2959 16827.5314 -4695.0290
TCL: Setting parameter constraintScaling to 0
TCL: Minimizing for 5000 steps
ETITLE: TS BOND ANGLE DIHED IMPRP ELECT VDW BOUNDARY MISC KINETIC TOTAL TEMP POTENTIAL TOTAL3 TEMPAVG PRESSURE GPRESSURE VOLUME PRESSAVG GPRESSAVG
ENERGY: 1000 166.5818 650.3452 2818.6241 0.0000 -203465.5196 22740.4718 0.0000 0.0000 0.0000 -177089.4967 0.0000 -177089.4967 -177089.4967 0.0000 16852.1945 -27271.0613 534946.2959 16852.1945 -27271.0613
ENERGY: 2000 205.3887 685.9813 2801.8688 0.0000 -214052.8448 27373.5469 0.0000 0.0000 0.0000 -182986.0591 0.0000 -182986.0591 -182986.0591 0.0000 19306.0478 -3436.8928 534946.2959 19306.0478 -3436.8928
ENERGY: 3000 168.9930 668.2020 2792.8292 0.0000 -217272.4145 28802.6997 0.0000 0.0000 0.0000 -184839.6906 0.0000 -184839.6906 -184839.6906 0.0000 20054.7579 -3007.5805 534946.2959 20054.7579 -3007.5805
ENERGY: 4000 178.6981 675.7610 2789.7658 0.0000 -218635.4962 29359.7826 0.0000 0.0000 0.0000 -185631.4887 0.0000 -185631.4887 -185631.4887 0.0000 20362.6100 -2848.4368 534946.2959 20362.6100 -2848.4368
ENERGY: 5000 175.3233 666.1204 2783.6736 0.0000 -219427.8674 29632.0057 0.0000 0.0000 0.0000 -186170.7443 0.0000 -186170.7443 -186170.7443 0.0000 20491.1593 -2794.8725 534946.2959 20491.1593 -2794.8725
ENERGY: 6000 165.4826 662.8789 2782.9933 0.0000 -219880.7200 29841.1014 0.0000 0.0000 0.0000 -186428.2637 0.0000 -186428.2637 -186428.2637 0.0000 20608.2372 -2728.4847 534946.2959 20608.2372 -2728.4847
