Info: SIMULATION PARAMETERS:
Info: TIMESTEP               1
Info: NUMBER OF STEPS        0
Info: STEPS PER CYCLE        10
Info: PERIODIC CELL BASIS 1  72.449 0 0
Info: PERIODIC CELL BASIS 2  0 93.247 0
Info: PERIODIC CELL BASIS 3  0 0 79.185
Info: PERIODIC CELL CENTER   -0.248 -0.156 -0.047
Info: WRAPPING WATERS AROUND PERIODIC BOUNDARIES ON OUTPUT.
Info: WRAPPING ALL CLUSTERS AROUND PERIODIC BOUNDARIES ON OUTPUT.
Info: FIRST LDB TIMESTEP     50
Info: LAST LDB TIMESTEP     -1
Info: HOM BACKGROUND SCALING 1
Info: PME BACKGROUND SCALING 1
Info: MIN ATOMS PER PATCH    40
Info: VELOCITY FILE          ../replicas/rep88/equilibration/eq1.vel
Info: CENTER OF MASS MOVING INITIALLY? NO
Info: DIELECTRIC             1
Info: EXCLUDE                SCALED ONE-FOUR
Info: 1-4 ELECTROSTATICS SCALED BY 0.833333
Info: MODIFIED 1-4 VDW PARAMETERS WILL BE USED
Info: DCD FILENAME           ../replicas/rep88/equilibration/eq2.dcd
Info: DCD FREQUENCY          5000
Info: DCD FIRST STEP         5000
Info: DCD FILE WILL CONTAIN UNIT CELL DATA
Info: XST FILENAME           ../replicas/rep88/equilibration/eq2.xst
Info: XST FREQUENCY          5000
Info: NO VELOCITY DCD OUTPUT
Info: NO FORCE DCD OUTPUT
Info: OUTPUT FILENAME        ../replicas/rep88/equilibration/eq2
Info: RESTART FILENAME       ../replicas/rep88/equilibration/eq2.restart
Info: RESTART FREQUENCY      5000
Info: BINARY RESTART FILES WILL BE USED
Info: SWITCHING ACTIVE
Info: SWITCHING ON           10
Info: SWITCHING OFF          12
Info: PAIRLIST DISTANCE      13.5
Info: PAIRLIST SHRINK RATE   0.01
Info: PAIRLIST GROW RATE     0.01
Info: PAIRLIST TRIGGER       0.3
Info: PAIRLISTS PER CYCLE    2
Info: PAIRLISTS ENABLED
Info: MARGIN                 0.48
Info: HYDROGEN GROUP CUTOFF  2.5
Info: PATCH DIMENSION        16.48
Info: ENERGY OUTPUT STEPS    500
Info: CROSSTERM ENERGY INCLUDED IN DIHEDRAL
Info: TIMING OUTPUT STEPS    5000
Info: PRESSURE OUTPUT STEPS  500
Info: HARMONIC CONSTRAINTS ACTIVE
Info: HARMONIC CONS EXP      2
Info: HARMONIC CONS SCALING  10
Info: LANGEVIN DYNAMICS ACTIVE
Info: LANGEVIN TEMPERATURE   300
Info: LANGEVIN USING BBK INTEGRATOR
Info: LANGEVIN DAMPING COEFFICIENT IS 5 INVERSE PS
Info: LANGEVIN DYNAMICS NOT APPLIED TO HYDROGENS
Info: BERENDSEN PRESSURE COUPLING ACTIVE
Info:     TARGET PRESSURE IS 1 BAR
Info:     COMPRESSIBILITY ESTIMATE IS 4.57e-05 BAR^(-1)
Info:     RELAXATION TIME IS 100 FS
Info:     APPLIED EVERY 2 STEPS
Info:     PRESSURE CONTROL IS GROUP-BASED
Info:       CELL FLUCTUATION IS ISOTROPIC
Info: PARTICLE MESH EWALD (PME) ACTIVE
Info: PME TOLERANCE               1e-06
Info: PME EWALD COEFFICIENT       0.257952
Info: PME INTERPOLATION ORDER     4
Info: PME GRID DIMENSIONS         80 96 80
Info: PME MAXIMUM GRID SPACING    1
Info: FULL ELECTROSTATIC EVALUATION FREQUENCY      2
Info: USING VERLET I (r-RESPA) MTS SCHEME.
Info: C1 SPLITTING OF LONG RANGE ELECTROSTATICS
Info: PLACING ATOMS IN PATCHES BY HYDROGEN GROUPS
Info: RIGID BONDS TO HYDROGEN : WATER
Info:         ERROR TOLERANCE : 1e-05
Info:          MAX ITERATIONS : 100
Info: RIGID WATER USING SETTLE ALGORITHM
Info: RANDOM NUMBER SEED     1503699394
Info: USE HYDROGEN BONDS?    NO
Info: Using AMBER format force field!
Info: AMBER PARM FILE        ../build/complex.top
Info: COORDINATE PDB         ../replicas/rep88/equilibration/eq1.coor
Info: Exclusions in PARM file will be ignored!
Info: SCNB (VDW SCALING)     2
Info: USING ARITHMETIC MEAN TO COMBINE L-J SIGMA PARAMETERS
Info: SUMMARY OF PARAMETERS:
Info: 71 BONDS
Info: 145 ANGLES
Info: 76 DIHEDRAL
Info: 0 IMPROPER
Info: 0 CROSSTERM
Info: 0 VDW
Info: 190 VDW_PAIRS
Info: 0 NBTHOLE_PAIRS
Info: STRUCTURE SUMMARY:
Info: 49394 ATOMS
Info: 49448 BONDS
Info: 8698 ANGLES
Info: 18780 DIHEDRALS
Info: 0 IMPROPERS
Info: 0 CROSSTERMS
Info: 0 EXCLUSIONS
Info: 2336 CONSTRAINTS
Info: 44667 RIGID BONDS
Info: 103515 DEGREES OF FREEDOM
Info: 17225 HYDROGEN GROUPS
Info: 4 ATOMS IN LARGEST HYDROGEN GROUP
Info: 17225 MIGRATION GROUPS
Info: 4 ATOMS IN LARGEST MIGRATION GROUP
Info: TOTAL MASS = 301478 amu
Info: TOTAL CHARGE = 1.00115e-05 e
Info: MASS DENSITY = 0.935846 g/cm^3
Info: ATOM DENSITY = 0.0923345 atoms/A^3
Info: ADDED 70656 IMPLICIT EXCLUSIONS
Info: NONBONDED TABLE R-SQUARED SPACING: 0.0625
Info: NONBONDED TABLE SIZE: 769 POINTS
Info: REMOVING COM VELOCITY 0.00506628 -0.0152462 0.0408748
TCL: Running for 5000 steps
ETITLE: TS BOND ANGLE DIHED IMPRP ELECT VDW BOUNDARY MISC KINETIC TOTAL TEMP POTENTIAL TOTAL3 TEMPAVG PRESSURE GPRESSURE VOLUME PRESSAVG GPRESSAVG
ENERGY: 0 393.5635 1205.4493 2926.5702 0.0000 -212563.1443 29496.3265 0.0000 0.0000 10166.8695 -168374.3653 98.8495 -178541.2348 -168364.7057 98.8495 -2371.1006 -2474.0878 534946.2959 -2371.1006 -2474.0878
ENERGY: 1000 1230.9678 1936.3900 3101.9823 0.0000 -193348.0997 26272.3985 766.7385 0.0000 24115.2326 -135924.3900 234.4653 -160039.6227 -135899.6488 219.1994 -38.3829 -49.9537 523022.8087 -3.6205 -3.6920
ENERGY: 2000 1510.7163 2159.3241 3147.4464 0.0000 -184024.1889 23158.6489 801.2416 0.0000 27988.3161 -125258.4956 272.1221 -153246.8117 -125224.5714 264.7965 -27.3682 8.3065 515479.1158 -22.2673 -22.1116
ENERGY: 3000 1525.2522 2179.4096 3154.8073 0.0000 -179349.8241 21622.8228 811.8421 0.0000 29358.2872 -120697.4029 285.4420 -150055.6901 -120649.7114 283.6614 -87.5170 -23.0594 508597.0538 -21.8301 -20.9858
ENERGY: 4000 1594.3065 2236.0801 3159.6185 0.0000 -176834.6546 20562.8578 834.1292 0.0000 30143.2773 -118304.3853 293.0742 -148447.6625 -118272.6261 292.9276 -23.5546 -36.4710 506284.3627 4.2211 4.1327
ENERGY: 5000 1589.7142 2214.9739 3153.4022 0.0000 -176645.0325 20637.1458 812.7612 0.0000 30607.6980 -117629.3371 297.5896 -148237.0351 -117589.4564 294.8710 -9.9463 14.0069 505367.7857 0.6818 0.5063
TCL: Setting parameter constraintScaling to 5.0
TCL: Running for 5000 steps
ETITLE: TS BOND ANGLE DIHED IMPRP ELECT VDW BOUNDARY MISC KINETIC TOTAL TEMP POTENTIAL TOTAL3 TEMPAVG PRESSURE GPRESSURE VOLUME PRESSAVG GPRESSAVG
ENERGY: 5000 1589.7142 2214.9739 3153.4022 0.0000 -176645.0325 20637.1458 406.3806 0.0000 30605.6450 -118037.7708 297.5696 -148643.4158 -117994.6577 297.5696 -70.9571 -55.2450 505367.7857 -70.9571 -55.2450
ENERGY: 6000 1633.3933 2286.0995 3151.6190 0.0000 -176138.7965 20499.9003 648.1528 0.0000 30611.8798 -117307.7518 297.6303 -147919.6316 -117257.1824 298.6423 -121.3316 -10.6907 504001.1575 6.4224 6.7285
ENERGY: 7000 1533.1360 2327.6931 3154.6581 0.0000 -175026.3050 19961.8568 637.1858 0.0000 30599.4808 -116812.2943 297.5097 -147411.7751 -116765.7734 298.8702 -42.1641 12.7746 504141.9651 0.1646 0.1546
ENERGY: 8000 1631.4752 2281.6618 3172.2833 0.0000 -175594.3492 20048.5809 646.2589 0.0000 30909.4886 -116904.6004 300.5238 -147814.0890 -116855.9696 299.1485 36.0170 1.1252 501664.8252 1.6578 2.1210
ENERGY: 9000 1641.8232 2255.2009 3144.7138 0.0000 -175525.6392 20149.2879 634.0229 0.0000 30630.3327 -117070.2577 297.8097 -147700.5905 -117023.8878 298.6324 -92.3337 15.4191 501830.5025 6.9824 7.6329
ENERGY: 10000 1563.1807 2293.3594 3152.7954 0.0000 -175759.2072 19840.3128 655.4095 0.0000 30851.1590 -117402.9905 299.9567 -148254.1495 -117356.6050 298.6838 -94.1007 -5.9573 500970.1516 3.7076 2.9270
TCL: Setting parameter constraintScaling to 2.5
TCL: Running for 5000 steps
ETITLE: TS BOND ANGLE DIHED IMPRP ELECT VDW BOUNDARY MISC KINETIC TOTAL TEMP POTENTIAL TOTAL3 TEMPAVG PRESSURE GPRESSURE VOLUME PRESSAVG GPRESSAVG
ENERGY: 10000 1563.1807 2293.3594 3152.7954 0.0000 -175759.2072 19840.3128 327.7048 0.0000 30849.1282 -117732.7261 299.9370 -148581.8542 -117686.3213 299.9370 -249.6659 -155.8506 500970.1516 -249.6659 -155.8506
ENERGY: 11000 1557.8978 2414.5900 3200.0464 0.0000 -175510.7705 20046.4848 537.7502 0.0000 30722.7309 -117031.2704 298.7080 -147754.0013 -116987.2680 299.2702 -104.8059 -5.3716 499375.0737 -13.2421 -12.6900
ENERGY: 12000 1627.6453 2298.9279 3189.2893 0.0000 -175761.9566 20063.3095 508.8397 0.0000 31041.6925 -117032.2525 301.8092 -148073.9450 -116987.4990 299.9003 -107.4705 -29.7570 500777.1578 11.3510 11.5539
ENERGY: 13000 1613.5967 2345.6979 3181.6052 0.0000 -176202.8887 20508.5370 502.5576 0.0000 30910.5369 -117140.3573 300.5340 -148050.8943 -117088.4181 300.6558 80.5831 -15.0702 498563.6535 -22.8712 -22.9229
ENERGY: 14000 1609.9129 2284.2707 3154.3145 0.0000 -175686.3503 20131.2762 503.7516 0.0000 30777.6190 -117225.2054 299.2417 -148002.8244 -117187.0060 299.9826 13.0707 63.1604 499286.6438 -3.5814 -3.1487
ENERGY: 15000 1658.9764 2347.6982 3165.7445 0.0000 -175784.3759 20100.1157 487.3090 0.0000 30747.8947 -117276.6374 298.9527 -148024.5321 -117226.9824 300.2854 -36.8558 -7.0415 499914.1099 8.3841 8.2666
TCL: Setting parameter constraintScaling to 1.25
TCL: Running for 5000 steps
ETITLE: TS BOND ANGLE DIHED IMPRP ELECT VDW BOUNDARY MISC KINETIC TOTAL TEMP POTENTIAL TOTAL3 TEMPAVG PRESSURE GPRESSURE VOLUME PRESSAVG GPRESSAVG
ENERGY: 15000 1658.9764 2347.6982 3165.7445 0.0000 -175784.3759 20100.1157 243.6545 0.0000 30745.8298 -117522.3568 298.9326 -148268.1866 -117476.9885 298.9326 -43.9681 -23.8601 499914.1099 -43.9681 -23.8601
ENERGY: 16000 1648.3496 2327.4357 3183.3193 0.0000 -175654.3583 20123.6967 397.6933 0.0000 30639.4574 -117334.4063 297.8984 -147973.8637 -117290.4624 299.2307 124.0526 45.3435 499510.4144 -4.4820 -3.8455
ENERGY: 17000 1672.3843 2384.5325 3183.1137 0.0000 -175651.6663 19848.7250 411.1925 0.0000 30875.9271 -117275.7913 300.1975 -148151.7183 -117227.6522 299.1660 -139.0346 -84.2493 499231.5228 -1.5863 -1.3291
ENERGY: 18000 1637.7055 2400.6243 3184.3510 0.0000 -176006.4721 20290.4956 405.2190 0.0000 30411.8145 -117676.2621 295.6851 -148088.0766 -117631.7998 299.1639 -138.6652 -53.0196 498971.4896 2.9961 3.0794
ENERGY: 19000 1642.4744 2337.6822 3176.6947 0.0000 -176049.6253 20192.4070 399.2946 0.0000 30871.2559 -117429.8165 300.1521 -148301.0724 -117394.7153 298.5569 -18.6817 -47.9222 499064.1519 3.5289 3.4749
ENERGY: 20000 1591.9101 2368.1036 3177.3225 0.0000 -176123.0379 20278.7595 390.1712 0.0000 30893.6206 -117423.1506 300.3696 -148316.7711 -117375.2897 299.4778 65.0405 96.4454 498345.3600 -2.2381 -2.1862
TCL: Setting parameter constraintScaling to 0.625
TCL: Running for 5000 steps
ETITLE: TS BOND ANGLE DIHED IMPRP ELECT VDW BOUNDARY MISC KINETIC TOTAL TEMP POTENTIAL TOTAL3 TEMPAVG PRESSURE GPRESSURE VOLUME PRESSAVG GPRESSAVG
ENERGY: 20000 1591.9101 2368.1036 3177.3225 0.0000 -176123.0379 20278.7595 195.0856 0.0000 30891.5654 -117620.2913 300.3496 -148511.8567 -117574.4771 300.3496 55.2341 80.1268 498345.3600 55.2341 80.1268
ENERGY: 21000 1619.8293 2481.6313 3189.9489 0.0000 -175233.5168 19779.5814 333.1476 0.0000 30989.0278 -116840.3504 301.2972 -147829.3782 -116784.1129 300.5514 -96.6647 -30.5794 498730.9079 -0.3746 -0.4182
ENERGY: 22000 1624.2765 2374.7605 3209.4258 0.0000 -175731.3578 19999.2243 313.0717 0.0000 30820.1411 -117390.4579 299.6551 -148210.5989 -117347.2106 300.0250 -42.1791 32.7320 498050.9158 1.5622 1.5144
ENERGY: 23000 1609.1580 2389.7452 3180.7916 0.0000 -175663.6887 20158.6231 300.5317 0.0000 30983.4818 -117041.3572 301.2432 -148024.8390 -116995.5972 300.2696 -106.3691 -79.7943 498080.0203 -5.8664 -6.3082
ENERGY: 24000 1598.0943 2380.4504 3217.9228 0.0000 -175682.8684 20094.3035 292.1441 0.0000 30780.6482 -117319.3051 299.2712 -148099.9533 -117260.4636 299.5006 -13.9959 9.6401 498974.6361 3.8319 4.7470
ENERGY: 25000 1671.1857 2451.3272 3170.8699 0.0000 -176051.7495 20132.7950 291.5107 0.0000 30988.2915 -117345.7695 301.2900 -148334.0610 -117303.7693 300.2799 -187.3936 -99.3089 497860.7627 -2.1322 -2.7615
TCL: Setting parameter constraintScaling to 0.3125
TCL: Running for 5000 steps
ETITLE: TS BOND ANGLE DIHED IMPRP ELECT VDW BOUNDARY MISC KINETIC TOTAL TEMP POTENTIAL TOTAL3 TEMPAVG PRESSURE GPRESSURE VOLUME PRESSAVG GPRESSAVG
ENERGY: 25000 1671.1857 2451.3272 3170.8699 0.0000 -176051.7495 20132.7950 145.7553 0.0000 30986.2301 -117493.5862 301.2700 -148479.8163 -117449.7231 301.2700 -226.0268 -134.3039 497860.7627 -226.0268 -134.3039
ENERGY: 26000 1644.8601 2379.0981 3208.7319 0.0000 -175834.8466 20033.9622 232.8456 0.0000 30905.0716 -117430.2771 300.4809 -148335.3487 -117392.7617 299.1403 -58.5006 -8.1431 497311.9680 8.3619 7.8865
ENERGY: 27000 1660.6698 2312.8946 3226.7762 0.0000 -175831.7405 19930.5512 243.3540 0.0000 30721.7655 -117735.7291 298.6987 -148457.4945 -117691.0686 299.8607 -85.1969 -10.8791 498091.1836 15.3184 15.0876
ENERGY: 28000 1558.1106 2367.8495 3207.3200 0.0000 -175587.0490 19972.8035 233.9568 0.0000 30679.8025 -117567.2061 298.2907 -148247.0087 -117527.2659 298.1381 -114.7136 -15.4715 498795.3857 13.2714 13.5785
ENERGY: 29000 1623.6209 2393.9083 3192.9444 0.0000 -176286.1902 20146.1042 253.9952 0.0000 30561.8534 -118113.7639 297.1439 -148675.6173 -118070.1533 297.6902 55.0966 60.0747 497046.3865 -14.1161 -13.9204
ENERGY: 30000 1651.5483 2358.0881 3196.9237 0.0000 -175973.9282 20153.0411 261.6263 0.0000 30750.1782 -117602.5225 298.9749 -148352.7007 -117566.2785 299.1642 -48.8718 -37.2002 497343.8466 0.8244 0.6875
TCL: Setting parameter constraintScaling to 0.15625
TCL: Running for 5000 steps
ETITLE: TS BOND ANGLE DIHED IMPRP ELECT VDW BOUNDARY MISC KINETIC TOTAL TEMP POTENTIAL TOTAL3 TEMPAVG PRESSURE GPRESSURE VOLUME PRESSAVG GPRESSAVG
ENERGY: 30000 1651.5483 2358.0881 3196.9237 0.0000 -175973.9282 20153.0411 130.8131 0.0000 30748.1384 -117735.3755 298.9551 -148483.5138 -117694.9427 298.9551 -56.6132 -37.5737 497343.8466 -56.6132 -37.5737
ENERGY: 31000 1669.6334 2403.6197 3178.9632 0.0000 -175823.5865 20146.3397 194.7269 0.0000 30823.1615 -117407.1423 299.6845 -148230.3038 -117364.4007 299.5943 197.2605 231.4672 497942.1574 -8.8883 -9.2699
ENERGY: 32000 1612.5510 2435.4551 3219.5106 0.0000 -175531.2568 19902.2613 200.8129 0.0000 30716.7979 -117443.8680 298.6504 -148160.6659 -117399.5459 300.4558 -29.9913 11.9552 497152.5939 -4.4254 -4.2330
ENERGY: 33000 1637.1893 2411.4800 3218.3588 0.0000 -175869.3365 20062.9939 189.3094 0.0000 30845.8426 -117504.1625 299.9050 -148350.0051 -117471.5905 299.4512 61.1126 52.5805 495991.1736 -2.2017 -2.2009
ENERGY: 34000 1627.4303 2432.0266 3208.2373 0.0000 -175796.6372 19954.7832 208.7951 0.0000 30934.5131 -117430.8515 300.7671 -148365.3646 -117384.5204 300.1702 42.6860 77.4528 495727.2571 -5.2372 -5.7888
ENERGY: 35000 1607.0083 2377.5539 3190.9172 0.0000 -176339.2366 20068.7888 210.2342 0.0000 30707.8894 -118176.8448 298.5637 -148884.7342 -118126.1666 299.4903 -81.8608 -73.6306 496621.1497 6.3566 7.0471
TCL: Setting parameter constraintScaling to 0.078125
TCL: Running for 5000 steps
ETITLE: TS BOND ANGLE DIHED IMPRP ELECT VDW BOUNDARY MISC KINETIC TOTAL TEMP POTENTIAL TOTAL3 TEMPAVG PRESSURE GPRESSURE VOLUME PRESSAVG GPRESSAVG
ENERGY: 35000 1607.0083 2377.5539 3190.9172 0.0000 -176339.2366 20068.7888 105.1171 0.0000 30705.8262 -118284.0251 298.5437 -148989.8513 -118239.9673 298.5437 -93.2383 -90.5686 496621.1497 -93.2383 -90.5686
ENERGY: 36000 1619.3021 2450.7850 3182.1228 0.0000 -175977.3288 19949.8008 153.8048 0.0000 30807.3976 -117814.1157 299.5312 -148621.5133 -117770.1425 297.9512 -20.7356 -5.4497 496549.4990 8.2284 7.5267
ENERGY: 37000 1677.3559 2452.1054 3168.8994 0.0000 -175841.0781 20013.7474 156.3875 0.0000 30619.0022 -117753.5804 297.6995 -148372.5826 -117704.9326 298.8028 -95.0384 -79.2645 496873.9482 2.7099 3.0373
ENERGY: 38000 1580.9798 2437.8927 3215.0717 0.0000 -176034.8739 20015.0895 153.3835 0.0000 31049.0749 -117583.3817 301.8810 -148632.4566 -117538.5674 299.5807 -25.7956 22.2965 497016.3633 8.5372 7.9743
ENERGY: 39000 1606.1655 2394.6107 3219.7777 0.0000 -175720.2841 20027.3783 147.3877 0.0000 30776.0059 -117548.9582 299.2260 -148324.9641 -117499.1918 298.8433 29.9901 118.7270 496636.7528 -2.2457 -2.0755
ENERGY: 40000 1607.9518 2328.9717 3224.7557 0.0000 -175823.7472 19955.4732 155.2644 0.0000 31014.9381 -117536.3923 301.5491 -148551.3304 -117491.0323 299.6468 -14.4794 -6.7714 497227.3724 1.4614 1.3390
TCL: Setting parameter constraintScaling to 0.0390625
TCL: Running for 5000 steps
ETITLE: TS BOND ANGLE DIHED IMPRP ELECT VDW BOUNDARY MISC KINETIC TOTAL TEMP POTENTIAL TOTAL3 TEMPAVG PRESSURE GPRESSURE VOLUME PRESSAVG GPRESSAVG
ENERGY: 40000 1607.9518 2328.9717 3224.7557 0.0000 -175823.7472 19955.4732 77.6322 0.0000 31012.8975 -117616.0651 301.5292 -148628.9626 -117572.2884 301.5292 -20.3037 -7.3430 497227.3724 -20.3037 -7.3430
ENERGY: 41000 1614.1975 2420.1119 3223.9240 0.0000 -176015.8556 20060.0635 107.8430 0.0000 30918.5766 -117671.1392 300.6122 -148589.7158 -117625.7759 298.9432 -62.0749 -41.7450 496962.1104 11.9364 12.0732
ENERGY: 42000 1624.1929 2452.3585 3213.3991 0.0000 -175947.8685 20143.6431 111.9630 0.0000 30663.1441 -117739.1677 298.1287 -148402.3118 -117689.7622 299.7284 21.4877 -7.4341 497868.1697 4.0494 4.7118
ENERGY: 43000 1630.6249 2474.2293 3221.1953 0.0000 -175834.3695 20181.5755 127.9755 0.0000 30929.7226 -117269.0464 300.7206 -148198.7690 -117219.7170 300.9540 12.4150 34.6937 498006.8327 5.8442 5.6370
ENERGY: 44000 1669.6187 2456.2890 3201.1949 0.0000 -175481.7205 19849.0744 121.7018 0.0000 30822.2096 -117361.6322 299.6752 -148183.8417 -117302.1173 300.4427 -117.3333 -124.6646 498067.2257 -2.1245 -2.0591
ENERGY: 45000 1690.0226 2409.2468 3211.4188 0.0000 -175923.3036 20104.8329 125.4439 0.0000 30765.0436 -117617.2950 299.1194 -148382.3386 -117581.9352 299.7570 -16.0636 15.1528 497617.1225 -3.1704 -3.7002
TCL: Setting parameter constraintScaling to 0.01953125
TCL: Running for 5000 steps
ETITLE: TS BOND ANGLE DIHED IMPRP ELECT VDW BOUNDARY MISC KINETIC TOTAL TEMP POTENTIAL TOTAL3 TEMPAVG PRESSURE GPRESSURE VOLUME PRESSAVG GPRESSAVG
ENERGY: 45000 1690.0226 2409.2468 3211.4188 0.0000 -175923.3036 20104.8329 62.7219 0.0000 30763.0125 -117682.0480 299.0997 -148445.0606 -117638.0896 299.0997 -31.6154 -1.7567 497617.1225 -31.6154 -1.7567
ENERGY: 46000 1637.6634 2363.8920 3216.5910 0.0000 -175392.2225 19806.4404 74.1566 0.0000 30671.7849 -117621.6941 298.2127 -148293.4790 -117576.8795 300.0761 22.6080 40.8648 496279.1627 -2.8276 -3.0684
ENERGY: 47000 1611.7854 2343.2061 3207.3968 0.0000 -175296.1918 19851.3047 77.9621 0.0000 30530.1223 -117674.4144 296.8354 -148204.5367 -117640.7835 299.6987 -5.0492 -22.8662 497119.8311 4.4233 4.4599
ENERGY: 48000 1643.3073 2364.7917 3228.6798 0.0000 -176217.0825 20093.1282 82.2756 0.0000 30738.5698 -118066.3300 298.8620 -148804.8998 -118028.9796 298.3833 8.9999 21.3238 496716.6518 -5.2559 -5.3432
ENERGY: 49000 1626.1552 2431.8133 3233.4594 0.0000 -175980.6308 20166.4274 87.6158 0.0000 30723.4899 -117711.6699 298.7154 -148435.1597 -117663.2725 298.6704 64.7875 -3.1062 496500.0891 -9.0033 -9.6245
ENERGY: 50000 1611.6442 2356.3352 3182.8245 0.0000 -176036.1611 19942.6580 86.9261 0.0000 30717.5413 -118138.2317 298.6576 -148855.7730 -118098.1605 297.5760 -120.6619 -91.2259 496195.1489 3.4939 3.7483
TCL: Setting parameter constraintScaling to 0
TCL: Running for 5000 steps
ETITLE: TS BOND ANGLE DIHED IMPRP ELECT VDW BOUNDARY MISC KINETIC TOTAL TEMP POTENTIAL TOTAL3 TEMPAVG PRESSURE GPRESSURE VOLUME PRESSAVG GPRESSAVG
ENERGY: 50000 1611.6442 2356.3352 3182.8245 0.0000 -176036.1611 19942.6580 0.0000 0.0000 30715.5068 -118227.1923 298.6378 -148942.6991 -118183.9963 298.6378 -128.3311 -94.3415 496195.1489 -128.3311 -94.3415
ENERGY: 51000 1660.5380 2386.9879 3181.2956 0.0000 -176397.2845 20225.5712 0.0000 0.0000 30932.0933 -118010.7986 300.7436 -148942.8919 -117962.4709 299.1405 28.6665 -7.7399 495105.2713 2.5006 2.3479
ENERGY: 52000 1669.1860 2461.3297 3218.6824 0.0000 -175581.7910 19927.4486 0.0000 0.0000 30994.7875 -117310.3567 301.3532 -148305.1442 -117273.3304 300.1477 3.4668 101.3476 497282.4729 6.2272 5.9436
ENERGY: 53000 1712.1400 2409.8142 3223.6486 0.0000 -175763.2291 20040.3353 0.0000 0.0000 30796.8174 -117580.4736 299.4284 -148377.2910 -117534.3458 300.1440 17.4910 6.5099 497796.5111 4.7397 5.5657
ENERGY: 54000 1643.2346 2369.1560 3215.4678 0.0000 -176143.9123 20282.2229 0.0000 0.0000 30810.8414 -117822.9896 299.5647 -148633.8310 -117768.5186 300.5381 114.8277 133.6770 497530.4481 -11.0461 -10.8617
ENERGY: 55000 1612.7042 2373.6792 3197.4325 0.0000 -176007.0778 20062.1299 0.0000 0.0000 30740.2376 -118020.8945 298.8783 -148761.1321 -117975.6729 299.9446 -33.9249 18.0160 497523.1198 12.1574 12.0612
