Info: SIMULATION PARAMETERS:
Info: TIMESTEP               1
Info: NUMBER OF STEPS        0
Info: STEPS PER CYCLE        10
Info: PERIODIC CELL BASIS 1  72.449 0 0
Info: PERIODIC CELL BASIS 2  0 93.247 0
Info: PERIODIC CELL BASIS 3  0 0 79.185
Info: PERIODIC CELL CENTER   -0.248 -0.156 -0.047
Info: WRAPPING WATERS AROUND PERIODIC BOUNDARIES ON OUTPUT.
Info: WRAPPING ALL CLUSTERS AROUND PERIODIC BOUNDARIES ON OUTPUT.
Info: FIRST LDB TIMESTEP     50
Info: LAST LDB TIMESTEP     -1
Info: HOM BACKGROUND SCALING 1
Info: PME BACKGROUND SCALING 1
Info: MIN ATOMS PER PATCH    40
Info: VELOCITY FILE          ../replicas/rep38/equilibration/eq1.vel
Info: CENTER OF MASS MOVING INITIALLY? NO
Info: DIELECTRIC             1
Info: EXCLUDE                SCALED ONE-FOUR
Info: 1-4 ELECTROSTATICS SCALED BY 0.833333
Info: MODIFIED 1-4 VDW PARAMETERS WILL BE USED
Info: DCD FILENAME           ../replicas/rep38/equilibration/eq2.dcd
Info: DCD FREQUENCY          5000
Info: DCD FIRST STEP         5000
Info: DCD FILE WILL CONTAIN UNIT CELL DATA
Info: XST FILENAME           ../replicas/rep38/equilibration/eq2.xst
Info: XST FREQUENCY          5000
Info: NO VELOCITY DCD OUTPUT
Info: NO FORCE DCD OUTPUT
Info: OUTPUT FILENAME        ../replicas/rep38/equilibration/eq2
Info: RESTART FILENAME       ../replicas/rep38/equilibration/eq2.restart
Info: RESTART FREQUENCY      5000
Info: BINARY RESTART FILES WILL BE USED
Info: SWITCHING ACTIVE
Info: SWITCHING ON           10
Info: SWITCHING OFF          12
Info: PAIRLIST DISTANCE      13.5
Info: PAIRLIST SHRINK RATE   0.01
Info: PAIRLIST GROW RATE     0.01
Info: PAIRLIST TRIGGER       0.3
Info: PAIRLISTS PER CYCLE    2
Info: PAIRLISTS ENABLED
Info: MARGIN                 0.48
Info: HYDROGEN GROUP CUTOFF  2.5
Info: PATCH DIMENSION        16.48
Info: ENERGY OUTPUT STEPS    500
Info: CROSSTERM ENERGY INCLUDED IN DIHEDRAL
Info: TIMING OUTPUT STEPS    5000
Info: PRESSURE OUTPUT STEPS  500
Info: HARMONIC CONSTRAINTS ACTIVE
Info: HARMONIC CONS EXP      2
Info: HARMONIC CONS SCALING  10
Info: LANGEVIN DYNAMICS ACTIVE
Info: LANGEVIN TEMPERATURE   300
Info: LANGEVIN USING BBK INTEGRATOR
Info: LANGEVIN DAMPING COEFFICIENT IS 5 INVERSE PS
Info: LANGEVIN DYNAMICS NOT APPLIED TO HYDROGENS
Info: BERENDSEN PRESSURE COUPLING ACTIVE
Info:     TARGET PRESSURE IS 1 BAR
Info:     COMPRESSIBILITY ESTIMATE IS 4.57e-05 BAR^(-1)
Info:     RELAXATION TIME IS 100 FS
Info:     APPLIED EVERY 2 STEPS
Info:     PRESSURE CONTROL IS GROUP-BASED
Info:       CELL FLUCTUATION IS ISOTROPIC
Info: PARTICLE MESH EWALD (PME) ACTIVE
Info: PME TOLERANCE               1e-06
Info: PME EWALD COEFFICIENT       0.257952
Info: PME INTERPOLATION ORDER     4
Info: PME GRID DIMENSIONS         80 96 80
Info: PME MAXIMUM GRID SPACING    1
Info: FULL ELECTROSTATIC EVALUATION FREQUENCY      2
Info: USING VERLET I (r-RESPA) MTS SCHEME.
Info: C1 SPLITTING OF LONG RANGE ELECTROSTATICS
Info: PLACING ATOMS IN PATCHES BY HYDROGEN GROUPS
Info: RIGID BONDS TO HYDROGEN : WATER
Info:         ERROR TOLERANCE : 1e-05
Info:          MAX ITERATIONS : 100
Info: RIGID WATER USING SETTLE ALGORITHM
Info: RANDOM NUMBER SEED     1503720737
Info: USE HYDROGEN BONDS?    NO
Info: Using AMBER format force field!
Info: AMBER PARM FILE        ../build/complex.top
Info: COORDINATE PDB         ../replicas/rep38/equilibration/eq1.coor
Info: Exclusions in PARM file will be ignored!
Info: SCNB (VDW SCALING)     2
Info: USING ARITHMETIC MEAN TO COMBINE L-J SIGMA PARAMETERS
Info: SUMMARY OF PARAMETERS:
Info: 71 BONDS
Info: 145 ANGLES
Info:   145 HARMONIC
Info:   0 COSINE-BASED
Info: 76 DIHEDRAL
Info: 0 IMPROPER
Info: 0 CROSSTERM
Info: 0 VDW
Info: 190 VDW_PAIRS
Info: 0 NBTHOLE_PAIRS
Info: STRUCTURE SUMMARY:
Info: 49394 ATOMS
Info: 49448 BONDS
Info: 8698 ANGLES
Info: 18780 DIHEDRALS
Info: 0 IMPROPERS
Info: 0 CROSSTERMS
Info: 0 EXCLUSIONS
Info: 2336 CONSTRAINTS
Info: 44667 RIGID BONDS
Info: 103515 DEGREES OF FREEDOM
Info: 17225 HYDROGEN GROUPS
Info: 4 ATOMS IN LARGEST HYDROGEN GROUP
Info: 17225 MIGRATION GROUPS
Info: 4 ATOMS IN LARGEST MIGRATION GROUP
Info: TOTAL MASS = 301478 amu
Info: TOTAL CHARGE = 1.00115e-05 e
Info: MASS DENSITY = 0.935846 g/cm^3
Info: ATOM DENSITY = 0.0923345 atoms/A^3
Info: ADDED 70656 IMPLICIT EXCLUSIONS
Info: NONBONDED TABLE R-SQUARED SPACING: 0.0625
Info: NONBONDED TABLE SIZE: 769 POINTS
Info: REMOVING COM VELOCITY -0.0135612 -0.00651328 -0.00202985
TCL: Running for 5000 steps
ETITLE: TS BOND ANGLE DIHED IMPRP ELECT VDW BOUNDARY MISC KINETIC TOTAL TEMP POTENTIAL TOTAL3 TEMPAVG PRESSURE GPRESSURE VOLUME PRESSAVG GPRESSAVG
ENERGY: 0 377.2932 1189.3920 2899.1341 0.0000 -212630.1954 29381.5008 0.0000 0.0000 10015.6469 -168767.2285 97.3792 -178782.8754 -168757.7640 97.3792 -2445.3276 -2545.1537 534946.2959 -2445.3276 -2545.1537
ENERGY: 1000 1213.2061 1971.5397 3114.8754 0.0000 -193221.0705 26312.4634 750.7270 0.0000 23991.8999 -135866.3590 233.2662 -159858.2589 -135846.2851 218.6523 -88.1877 -6.4892 520857.7133 -16.7721 -16.8805
ENERGY: 2000 1438.7960 2123.1597 3119.2016 0.0000 -184018.1140 23222.5142 788.6076 0.0000 27901.9838 -125423.8513 271.2828 -153325.8351 -125385.1503 263.9512 -90.0504 -21.8696 514546.4962 -16.8583 -16.1730
ENERGY: 3000 1518.2454 2239.3622 3132.4771 0.0000 -179877.4756 22066.2765 792.5297 0.0000 29485.3819 -120643.2029 286.6777 -150128.5847 -120600.0906 283.6518 -136.6761 -8.0504 510166.8532 -6.3370 -6.3161
ENERGY: 4000 1536.1009 2205.2309 3135.7157 0.0000 -177237.2459 21009.1667 827.4492 0.0000 30289.0827 -118234.4997 294.4918 -148523.5825 -118191.4509 292.8206 2.7913 12.4659 506341.0021 -11.1390 -11.2061
ENERGY: 5000 1543.3048 2216.3531 3154.5032 0.0000 -176125.0462 20516.8526 763.0440 0.0000 30487.2135 -117443.7751 296.4182 -147930.9886 -117402.2613 296.8183 -102.6759 -3.0070 504150.5268 -17.1185 -16.7461
TCL: Setting parameter constraintScaling to 5.0
TCL: Running for 5000 steps
ETITLE: TS BOND ANGLE DIHED IMPRP ELECT VDW BOUNDARY MISC KINETIC TOTAL TEMP POTENTIAL TOTAL3 TEMPAVG PRESSURE GPRESSURE VOLUME PRESSAVG GPRESSAVG
ENERGY: 5000 1543.3048 2216.3531 3154.5032 0.0000 -176125.0462 20516.8526 381.5220 0.0000 30485.1678 -117827.3428 296.3983 -148312.5106 -117783.5092 296.3983 -118.3150 -15.2518 504150.5268 -118.3150 -15.2518
ENERGY: 6000 1598.2316 2341.2926 3156.2474 0.0000 -175761.3911 20548.0500 662.0639 0.0000 30738.9831 -116716.5225 298.8661 -147455.5056 -116675.5265 299.0656 -41.5751 -28.3049 503943.7266 12.3824 12.8640
ENERGY: 7000 1629.2219 2354.7964 3176.5068 0.0000 -175972.9003 20509.6212 632.2241 0.0000 30838.7397 -116831.7902 299.8360 -147670.5299 -116781.1727 300.1456 -61.0365 -24.0253 503781.5364 4.6816 4.6748
ENERGY: 8000 1559.0749 2301.7307 3171.2568 0.0000 -175379.6079 20036.3177 641.4344 0.0000 30672.4377 -116997.3556 298.2191 -147669.7934 -116948.3016 298.7174 -18.3746 -46.4437 502324.1640 -3.6147 -3.6255
ENERGY: 9000 1573.9628 2239.8592 3168.2054 0.0000 -175362.8887 19789.9141 627.7025 0.0000 30782.2961 -117180.9486 299.2872 -147963.2447 -117129.1186 298.9035 -86.1094 -6.2616 502236.3369 5.0189 5.0785
ENERGY: 10000 1627.3404 2292.3914 3192.9386 0.0000 -176036.4911 20241.3616 662.5571 0.0000 30676.2704 -117343.6316 298.2563 -148019.9020 -117306.7350 298.6717 -45.3757 17.2926 500837.2618 1.2925 1.5825
TCL: Setting parameter constraintScaling to 2.5
TCL: Running for 5000 steps
ETITLE: TS BOND ANGLE DIHED IMPRP ELECT VDW BOUNDARY MISC KINETIC TOTAL TEMP POTENTIAL TOTAL3 TEMPAVG PRESSURE GPRESSURE VOLUME PRESSAVG GPRESSAVG
ENERGY: 10000 1627.3404 2292.3914 3192.9386 0.0000 -176036.4911 20241.3616 331.2785 0.0000 30674.2229 -117676.9576 298.2364 -148351.1805 -117634.4422 298.2364 -91.3988 -34.8530 500837.2618 -91.3988 -34.8530
ENERGY: 11000 1624.2645 2378.2090 3140.7670 0.0000 -175830.3969 20282.2384 517.1290 0.0000 30784.4812 -117103.3078 299.3084 -147887.7890 -117051.3653 299.0202 -61.9396 -77.2931 501718.0235 1.6297 1.4867
ENERGY: 12000 1649.1061 2348.1186 3137.1901 0.0000 -176212.8791 20311.7626 506.5142 0.0000 30704.3732 -117555.8143 298.5296 -148260.1876 -117509.3998 299.3095 -86.1083 -2.8544 500401.4850 -6.2962 -6.1149
ENERGY: 13000 1581.7839 2400.5567 3175.0614 0.0000 -175832.1245 20217.9591 512.7708 0.0000 30805.8381 -117138.1546 299.5161 -147943.9927 -117094.9233 299.4974 -54.7160 22.5568 498455.4944 -1.7253 -1.8515
ENERGY: 14000 1606.7194 2348.0885 3169.2324 0.0000 -175831.1679 20258.1065 517.1166 0.0000 30691.7114 -117240.1931 298.4064 -147931.9045 -117184.5144 298.9665 -31.5677 30.2351 500557.0380 11.3612 11.2534
ENERGY: 15000 1609.5340 2396.3844 3146.3276 0.0000 -175664.7164 20230.3394 516.1314 0.0000 30642.2252 -117123.7744 297.9253 -147765.9996 -117082.1611 299.5048 14.3131 24.5613 499225.9100 -1.7071 -1.7700
TCL: Setting parameter constraintScaling to 1.25
TCL: Running for 5000 steps
ETITLE: TS BOND ANGLE DIHED IMPRP ELECT VDW BOUNDARY MISC KINETIC TOTAL TEMP POTENTIAL TOTAL3 TEMPAVG PRESSURE GPRESSURE VOLUME PRESSAVG GPRESSAVG
ENERGY: 15000 1609.5340 2396.3844 3146.3276 0.0000 -175664.7164 20230.3394 258.0657 0.0000 30640.1815 -117383.8837 297.9054 -148024.0652 -117340.7243 297.9054 26.4734 34.7770 499225.9100 26.4734 34.7770
ENERGY: 16000 1585.2334 2381.7415 3194.2338 0.0000 -176038.9716 20200.5462 387.7674 0.0000 30964.3213 -117325.1280 301.0570 -148289.4493 -117287.1556 299.2525 3.9615 -12.3463 499309.4469 0.3513 -0.0067
ENERGY: 17000 1683.9658 2359.8439 3148.3546 0.0000 -175708.1703 20174.3928 386.9688 0.0000 30808.1718 -117146.4726 299.5388 -147954.6444 -117101.6596 299.7989 -86.4138 -22.6245 499139.7115 -2.5528 -2.2436
ENERGY: 18000 1615.6983 2346.4537 3221.3905 0.0000 -176169.6706 20342.0766 419.3384 0.0000 30890.0712 -117334.6418 300.3350 -148224.7130 -117282.0500 299.4369 48.7561 52.8437 497348.9454 -16.3058 -15.8714
ENERGY: 19000 1644.1344 2337.1053 3155.5641 0.0000 -176090.3094 20242.4406 398.1085 0.0000 31002.2320 -117310.7244 301.4255 -148312.9565 -117252.6765 299.1550 -34.9491 -30.3972 498866.8486 -9.0078 -9.2204
ENERGY: 20000 1659.9244 2361.3582 3178.9168 0.0000 -176080.9591 20259.8707 399.0977 0.0000 31094.3760 -117127.4152 302.3214 -148221.7913 -117079.1262 299.9137 -30.7441 10.2195 498283.7438 -4.3353 -4.7677
TCL: Setting parameter constraintScaling to 0.625
TCL: Running for 5000 steps
ETITLE: TS BOND ANGLE DIHED IMPRP ELECT VDW BOUNDARY MISC KINETIC TOTAL TEMP POTENTIAL TOTAL3 TEMPAVG PRESSURE GPRESSURE VOLUME PRESSAVG GPRESSAVG
ENERGY: 20000 1659.9244 2361.3582 3178.9168 0.0000 -176080.9591 20259.8707 199.5488 0.0000 31092.3277 -117329.0124 302.3015 -148421.3401 -117285.8010 302.3015 -44.0359 -0.8427 498283.7438 -44.0359 -0.8427
ENERGY: 21000 1598.6107 2374.3469 3162.6741 0.0000 -175606.2234 19928.4705 295.6890 0.0000 30799.4572 -117446.9748 299.4540 -148246.4320 -117408.1446 298.9983 -15.0654 -2.4626 498250.8063 0.7236 0.6625
ENERGY: 22000 1655.3517 2386.4327 3228.1201 0.0000 -175939.4680 20057.9984 333.6957 0.0000 30822.1405 -117455.7289 299.6746 -148277.8694 -117412.2684 299.6568 -136.8761 -102.1858 497182.8563 -12.3591 -12.6635
ENERGY: 23000 1631.1941 2345.5291 3209.1271 0.0000 -176006.4062 20098.0934 300.7148 0.0000 30755.6383 -117666.1094 299.0280 -148421.7477 -117608.0731 299.5127 -54.5557 27.6680 497037.1474 -5.8293 -5.6568
ENERGY: 24000 1685.2875 2391.9952 3181.8988 0.0000 -176012.4434 20063.3534 316.6753 0.0000 30853.3445 -117519.8887 299.9780 -148373.2332 -117470.3489 299.2222 -18.6315 3.0743 497550.6322 -5.1104 -4.9946
ENERGY: 25000 1648.6203 2437.0118 3168.8166 0.0000 -176184.3886 20280.1228 322.6912 0.0000 30741.2530 -117585.8729 298.8881 -148327.1259 -117545.6156 300.1335 39.3687 45.3709 496883.9151 -10.6882 -11.0125
TCL: Setting parameter constraintScaling to 0.3125
TCL: Running for 5000 steps
ETITLE: TS BOND ANGLE DIHED IMPRP ELECT VDW BOUNDARY MISC KINETIC TOTAL TEMP POTENTIAL TOTAL3 TEMPAVG PRESSURE GPRESSURE VOLUME PRESSAVG GPRESSAVG
ENERGY: 25000 1648.6203 2437.0118 3168.8166 0.0000 -176184.3886 20280.1228 161.3456 0.0000 30739.2508 -117749.2208 298.8687 -148488.4715 -117703.4075 298.8687 27.6315 46.3915 496883.9151 27.6315 46.3915
ENERGY: 26000 1648.5680 2404.5289 3201.5151 0.0000 -175938.8990 20172.3746 228.0196 0.0000 30800.4748 -117483.4180 299.4639 -148283.8928 -117443.3284 298.9609 -125.3663 34.3467 498597.0061 3.1401 3.0648
ENERGY: 27000 1610.5314 2375.4733 3204.7748 0.0000 -176145.7399 20114.3699 248.5562 0.0000 30941.8264 -117650.2080 300.8382 -148592.0344 -117600.7646 299.6988 14.4182 -18.5525 497495.0516 -1.1016 -1.1549
ENERGY: 28000 1685.9104 2376.9947 3217.1277 0.0000 -175624.3425 19911.0386 260.2265 0.0000 30827.3107 -117345.7339 299.7248 -148173.0446 -117299.0130 299.5057 -139.6045 -24.8120 498204.0824 0.7578 -0.0950
ENERGY: 29000 1657.2672 2372.7194 3186.5388 0.0000 -176267.4806 20298.8475 233.3774 0.0000 30899.1401 -117619.5903 300.4232 -148518.7303 -117569.1948 299.5799 -33.8850 -14.1565 498035.7803 -9.4118 -9.2562
ENERGY: 30000 1612.1798 2357.9419 3211.3665 0.0000 -175692.7786 19957.6824 226.6181 0.0000 30771.4042 -117555.5858 299.1813 -148326.9900 -117522.1530 300.7264 -46.3435 -63.8768 498301.0707 2.5696 2.7771
TCL: Setting parameter constraintScaling to 0.15625
TCL: Running for 5000 steps
ETITLE: TS BOND ANGLE DIHED IMPRP ELECT VDW BOUNDARY MISC KINETIC TOTAL TEMP POTENTIAL TOTAL3 TEMPAVG PRESSURE GPRESSURE VOLUME PRESSAVG GPRESSAVG
ENERGY: 30000 1612.1798 2357.9419 3211.3665 0.0000 -175692.7786 19957.6824 113.3091 0.0000 30769.3370 -117670.9621 299.1612 -148440.2991 -117625.3132 299.1612 -69.0922 -89.8220 498301.0707 -69.0922 -89.8220
ENERGY: 31000 1660.8671 2390.9621 3219.2398 0.0000 -176096.3082 20185.5312 194.8625 0.0000 30747.8188 -117697.0267 298.9520 -148444.8455 -117656.0350 298.3345 53.5346 34.7282 497402.5046 -1.0833 -1.3507
ENERGY: 32000 1580.3954 2366.7873 3217.3356 0.0000 -176011.9611 20209.5397 182.0676 0.0000 30748.9047 -117706.9309 298.9625 -148455.8355 -117646.9097 298.1174 88.7658 2.7302 497112.5263 3.2909 2.4795
ENERGY: 33000 1631.1563 2383.5669 3216.1050 0.0000 -176277.6144 20227.9357 197.9097 0.0000 30518.1515 -118102.7893 296.7190 -148620.9408 -118053.8759 298.1037 -22.3534 15.7374 496303.4020 -17.4378 -17.4579
ENERGY: 34000 1661.3685 2381.1662 3218.8501 0.0000 -176159.0218 20104.3497 212.8710 0.0000 30656.8886 -117923.5277 298.0679 -148580.4163 -117878.9742 299.2805 -107.4440 -116.2685 497161.5803 4.4411 4.4522
ENERGY: 35000 1649.5901 2494.6372 3235.5283 0.0000 -175842.0815 20125.8658 198.5266 0.0000 30652.3300 -117485.6035 298.0236 -148137.9335 -117438.7041 299.2038 -50.2250 -21.7922 496745.0819 3.4423 3.8014
TCL: Setting parameter constraintScaling to 0.078125
TCL: Running for 5000 steps
ETITLE: TS BOND ANGLE DIHED IMPRP ELECT VDW BOUNDARY MISC KINETIC TOTAL TEMP POTENTIAL TOTAL3 TEMPAVG PRESSURE GPRESSURE VOLUME PRESSAVG GPRESSAVG
ENERGY: 35000 1649.5901 2494.6372 3235.5283 0.0000 -175842.0815 20125.8658 99.2633 0.0000 30650.2830 -117586.9139 298.0037 -148237.1969 -117545.7150 298.0037 -65.7529 -31.0251 496745.0819 -65.7529 -31.0251
ENERGY: 36000 1652.7166 2406.7804 3232.8427 0.0000 -175455.5326 19839.6561 149.8862 0.0000 30814.6098 -117359.0407 299.6014 -148173.6505 -117318.3062 299.6646 -132.5904 -64.3385 497577.0978 6.8546 6.8339
ENERGY: 37000 1671.3302 2423.7108 3233.9185 0.0000 -176169.4764 20103.8245 168.0018 0.0000 30705.1656 -117863.5250 298.5373 -148568.6906 -117820.2031 298.5545 33.1144 -3.2770 496419.2485 4.8682 4.2525
ENERGY: 38000 1620.4460 2435.3349 3219.0300 0.0000 -176014.8302 19935.2682 160.0271 0.0000 30695.2847 -117949.4392 298.4412 -148644.7239 -117897.8918 297.7846 -118.6014 -0.6003 495475.6722 -6.1164 -7.1551
ENERGY: 39000 1678.8031 2412.2543 3215.1614 0.0000 -176079.5230 20258.5827 174.2588 0.0000 30790.0989 -117550.3640 299.3630 -148340.4628 -117497.8294 299.2491 -16.7925 33.3904 496956.0860 14.0551 13.7512
ENERGY: 40000 1630.8996 2431.8290 3192.9483 0.0000 -176082.9824 20134.4427 155.7977 0.0000 30837.9013 -117699.1637 299.8278 -148537.0650 -117659.8778 298.7306 -12.8981 -0.2520 496752.4002 3.0581 2.6590
TCL: Setting parameter constraintScaling to 0.0390625
TCL: Running for 5000 steps
ETITLE: TS BOND ANGLE DIHED IMPRP ELECT VDW BOUNDARY MISC KINETIC TOTAL TEMP POTENTIAL TOTAL3 TEMPAVG PRESSURE GPRESSURE VOLUME PRESSAVG GPRESSAVG
ENERGY: 40000 1630.8996 2431.8290 3192.9483 0.0000 -176082.9824 20134.4427 77.8989 0.0000 30835.8526 -117779.1112 299.8079 -148614.9638 -117736.2429 299.8079 -14.9342 -3.3408 496752.4002 -14.9342 -3.3408
ENERGY: 41000 1689.0708 2424.9628 3220.5227 0.0000 -175479.4736 19953.0241 114.1660 0.0000 30911.9048 -117165.8222 300.5473 -148077.7271 -117132.1600 300.2114 -132.0236 -62.6461 496660.5129 6.3654 6.5532
ENERGY: 42000 1641.2765 2437.1494 3211.5890 0.0000 -175414.7534 19741.1665 124.1961 0.0000 31046.1783 -117213.1975 301.8528 -148259.3758 -117172.9068 301.5791 -33.0084 -2.4110 496677.8795 -1.4818 -1.0766
ENERGY: 43000 1598.8704 2410.3428 3212.3087 0.0000 -175658.6949 19944.4562 121.2425 0.0000 30943.4566 -117428.0176 300.8541 -148371.4742 -117375.8704 300.6280 43.5302 80.3782 495879.3018 -6.6519 -6.8174
ENERGY: 44000 1693.4865 2390.7408 3216.8653 0.0000 -175147.8807 19748.7798 122.1577 0.0000 30751.6631 -117224.1875 298.9893 -147975.8506 -117176.7434 300.2720 -48.6198 -32.3246 497151.9805 8.3252 8.0748
ENERGY: 45000 1683.0329 2369.6837 3187.0181 0.0000 -175377.1354 19754.5790 137.0522 0.0000 30984.4398 -117261.3297 301.2526 -148245.7694 -117210.0872 300.9364 -138.4863 -33.7805 496748.3067 -6.2205 -6.4276
TCL: Setting parameter constraintScaling to 0.01953125
TCL: Running for 5000 steps
ETITLE: TS BOND ANGLE DIHED IMPRP ELECT VDW BOUNDARY MISC KINETIC TOTAL TEMP POTENTIAL TOTAL3 TEMPAVG PRESSURE GPRESSURE VOLUME PRESSAVG GPRESSAVG
ENERGY: 45000 1683.0329 2369.6837 3187.0181 0.0000 -175377.1354 19754.5790 68.5261 0.0000 30982.3948 -117331.9007 301.2327 -148314.2955 -117291.5164 301.2327 -153.4925 -44.2364 496748.3067 -153.4925 -44.2364
ENERGY: 46000 1637.7602 2418.1248 3194.2394 0.0000 -175706.1144 19963.4109 82.7230 0.0000 30786.3176 -117623.5386 299.3263 -148409.8562 -117559.9176 300.1592 28.5014 36.9387 497217.8815 -5.9018 -5.7924
ENERGY: 47000 1595.9671 2409.6546 3213.7552 0.0000 -176105.5454 20047.9056 91.6410 0.0000 30814.3722 -117932.2497 299.5990 -148746.6219 -117888.5534 300.0929 -41.9593 10.4269 496314.4583 -1.2330 -1.3490
ENERGY: 48000 1565.1890 2402.3394 3206.6458 0.0000 -175866.4398 19876.2286 87.2761 0.0000 30744.1301 -117984.6308 298.9161 -148728.7609 -117938.8776 298.5005 -70.3153 -28.7139 495534.7173 -2.1742 -2.4289
ENERGY: 49000 1604.2724 2380.2191 3206.5320 0.0000 -176019.3043 20072.3219 93.4583 0.0000 30886.6409 -117775.8597 300.3017 -148662.5007 -117736.8751 298.2000 6.3796 62.2601 496684.0787 -1.4394 -1.4107
ENERGY: 50000 1585.9409 2352.8002 3178.9374 0.0000 -176192.3457 20172.7764 90.5401 0.0000 30865.2376 -117946.1131 300.0936 -148811.3507 -117888.9091 299.3883 -45.7093 -20.9539 496289.1302 -2.3730 -2.3566
TCL: Setting parameter constraintScaling to 0
TCL: Running for 5000 steps
ETITLE: TS BOND ANGLE DIHED IMPRP ELECT VDW BOUNDARY MISC KINETIC TOTAL TEMP POTENTIAL TOTAL3 TEMPAVG PRESSURE GPRESSURE VOLUME PRESSAVG GPRESSAVG
ENERGY: 50000 1585.9409 2352.8002 3178.9374 0.0000 -176192.3457 20172.7764 0.0000 0.0000 30863.1657 -118038.7251 300.0734 -148901.8909 -117996.6402 300.0734 -52.0513 -23.8603 496289.1302 -52.0513 -23.8603
ENERGY: 51000 1693.8866 2419.9225 3201.4269 0.0000 -176076.6503 20217.8416 0.0000 0.0000 30887.6317 -117655.9410 300.3113 -148543.5727 -117614.9835 301.1510 76.1660 51.2466 496238.3628 -3.0475 -3.3384
ENERGY: 52000 1661.9704 2387.3794 3215.1274 0.0000 -175682.0603 19942.6152 0.0000 0.0000 30792.7866 -117682.1812 299.3892 -148474.9678 -117646.6420 300.0072 -116.0898 -25.8654 496811.8195 11.5239 11.1550
ENERGY: 53000 1652.4673 2421.4942 3211.2841 0.0000 -175790.6973 20030.7449 0.0000 0.0000 30615.5098 -117859.1970 297.6656 -148474.7068 -117808.5262 300.4096 76.7771 97.7220 495679.6951 -14.0986 -14.4919
ENERGY: 54000 1672.4542 2431.3123 3217.6659 0.0000 -175890.6137 20064.5056 0.0000 0.0000 30854.7709 -117649.9050 299.9918 -148504.6759 -117600.3105 300.0284 34.4925 49.8088 496998.2890 14.4347 14.1807
ENERGY: 55000 1626.7317 2361.5910 3199.7712 0.0000 -175747.9118 20019.0901 0.0000 0.0000 31022.2215 -117518.5064 301.6199 -148540.7279 -117461.9555 301.2390 -130.8795 -41.4183 497026.9545 5.8076 5.2391
