Info: SIMULATION PARAMETERS:
Info: TIMESTEP               1
Info: NUMBER OF STEPS        0
Info: STEPS PER CYCLE        10
Info: PERIODIC CELL BASIS 1  72.449 0 0
Info: PERIODIC CELL BASIS 2  0 93.247 0
Info: PERIODIC CELL BASIS 3  0 0 79.185
Info: PERIODIC CELL CENTER   -0.248 -0.156 -0.047
Info: WRAPPING WATERS AROUND PERIODIC BOUNDARIES ON OUTPUT.
Info: WRAPPING ALL CLUSTERS AROUND PERIODIC BOUNDARIES ON OUTPUT.
Info: FIRST LDB TIMESTEP     50
Info: LAST LDB TIMESTEP     -1
Info: HOM BACKGROUND SCALING 1
Info: PME BACKGROUND SCALING 1
Info: MIN ATOMS PER PATCH    40
Info: VELOCITY FILE          ../replicas/rep8/equilibration/eq1.vel
Info: CENTER OF MASS MOVING INITIALLY? NO
Info: DIELECTRIC             1
Info: EXCLUDE                SCALED ONE-FOUR
Info: 1-4 ELECTROSTATICS SCALED BY 0.833333
Info: MODIFIED 1-4 VDW PARAMETERS WILL BE USED
Info: DCD FILENAME           ../replicas/rep8/equilibration/eq2.dcd
Info: DCD FREQUENCY          5000
Info: DCD FIRST STEP         5000
Info: DCD FILE WILL CONTAIN UNIT CELL DATA
Info: XST FILENAME           ../replicas/rep8/equilibration/eq2.xst
Info: XST FREQUENCY          5000
Info: NO VELOCITY DCD OUTPUT
Info: NO FORCE DCD OUTPUT
Info: OUTPUT FILENAME        ../replicas/rep8/equilibration/eq2
Info: RESTART FILENAME       ../replicas/rep8/equilibration/eq2.restart
Info: RESTART FREQUENCY      5000
Info: BINARY RESTART FILES WILL BE USED
Info: SWITCHING ACTIVE
Info: SWITCHING ON           10
Info: SWITCHING OFF          12
Info: PAIRLIST DISTANCE      13.5
Info: PAIRLIST SHRINK RATE   0.01
Info: PAIRLIST GROW RATE     0.01
Info: PAIRLIST TRIGGER       0.3
Info: PAIRLISTS PER CYCLE    2
Info: PAIRLISTS ENABLED
Info: MARGIN                 0.48
Info: HYDROGEN GROUP CUTOFF  2.5
Info: PATCH DIMENSION        16.48
Info: ENERGY OUTPUT STEPS    500
Info: CROSSTERM ENERGY INCLUDED IN DIHEDRAL
Info: TIMING OUTPUT STEPS    5000
Info: PRESSURE OUTPUT STEPS  500
Info: HARMONIC CONSTRAINTS ACTIVE
Info: HARMONIC CONS EXP      2
Info: HARMONIC CONS SCALING  10
Info: LANGEVIN DYNAMICS ACTIVE
Info: LANGEVIN TEMPERATURE   300
Info: LANGEVIN USING BBK INTEGRATOR
Info: LANGEVIN DAMPING COEFFICIENT IS 5 INVERSE PS
Info: LANGEVIN DYNAMICS NOT APPLIED TO HYDROGENS
Info: BERENDSEN PRESSURE COUPLING ACTIVE
Info:     TARGET PRESSURE IS 1 BAR
Info:     COMPRESSIBILITY ESTIMATE IS 4.57e-05 BAR^(-1)
Info:     RELAXATION TIME IS 100 FS
Info:     APPLIED EVERY 2 STEPS
Info:     PRESSURE CONTROL IS GROUP-BASED
Info:       CELL FLUCTUATION IS ISOTROPIC
Info: PARTICLE MESH EWALD (PME) ACTIVE
Info: PME TOLERANCE               1e-06
Info: PME EWALD COEFFICIENT       0.257952
Info: PME INTERPOLATION ORDER     4
Info: PME GRID DIMENSIONS         80 96 80
Info: PME MAXIMUM GRID SPACING    1
Info: FULL ELECTROSTATIC EVALUATION FREQUENCY      2
Info: USING VERLET I (r-RESPA) MTS SCHEME.
Info: C1 SPLITTING OF LONG RANGE ELECTROSTATICS
Info: PLACING ATOMS IN PATCHES BY HYDROGEN GROUPS
Info: RIGID BONDS TO HYDROGEN : WATER
Info:         ERROR TOLERANCE : 1e-05
Info:          MAX ITERATIONS : 100
Info: RIGID WATER USING SETTLE ALGORITHM
Info: RANDOM NUMBER SEED     1503251131
Info: USE HYDROGEN BONDS?    NO
Info: Using AMBER format force field!
Info: AMBER PARM FILE        ../build/complex.top
Info: COORDINATE PDB         ../replicas/rep8/equilibration/eq1.coor
Info: Exclusions in PARM file will be ignored!
Info: SCNB (VDW SCALING)     2
Info: USING ARITHMETIC MEAN TO COMBINE L-J SIGMA PARAMETERS
Info: SUMMARY OF PARAMETERS:
Info: 71 BONDS
Info: 145 ANGLES
Info: 76 DIHEDRAL
Info: 0 IMPROPER
Info: 0 CROSSTERM
Info: 0 VDW
Info: 190 VDW_PAIRS
Info: 0 NBTHOLE_PAIRS
Info: STRUCTURE SUMMARY:
Info: 49394 ATOMS
Info: 49448 BONDS
Info: 8698 ANGLES
Info: 18780 DIHEDRALS
Info: 0 IMPROPERS
Info: 0 CROSSTERMS
Info: 0 EXCLUSIONS
Info: 2336 CONSTRAINTS
Info: 44667 RIGID BONDS
Info: 103515 DEGREES OF FREEDOM
Info: 17225 HYDROGEN GROUPS
Info: 4 ATOMS IN LARGEST HYDROGEN GROUP
Info: 17225 MIGRATION GROUPS
Info: 4 ATOMS IN LARGEST MIGRATION GROUP
Info: TOTAL MASS = 301478 amu
Info: TOTAL CHARGE = 1.00115e-05 e
Info: MASS DENSITY = 0.935846 g/cm^3
Info: ATOM DENSITY = 0.0923345 atoms/A^3
Info: ADDED 70656 IMPLICIT EXCLUSIONS
Info: NONBONDED TABLE R-SQUARED SPACING: 0.0625
Info: NONBONDED TABLE SIZE: 769 POINTS
Info: REMOVING COM VELOCITY -0.00574037 0.0161581 0.00990472
TCL: Running for 5000 steps
ETITLE: TS BOND ANGLE DIHED IMPRP ELECT VDW BOUNDARY MISC KINETIC TOTAL TEMP POTENTIAL TOTAL3 TEMPAVG PRESSURE GPRESSURE VOLUME PRESSAVG GPRESSAVG
ENERGY: 0 385.8380 1248.3599 2923.4822 0.0000 -212875.6457 29664.0701 0.0000 0.0000 10067.7753 -168586.1203 97.8860 -178653.8956 -168576.3537 97.8860 -2288.5924 -2386.6952 534946.2959 -2288.5924 -2386.6952
ENERGY: 1000 1219.5174 1965.3382 3112.8324 0.0000 -193460.3778 26280.6159 751.6241 0.0000 24159.1530 -135971.2967 234.8923 -160130.4497 -135942.7352 218.2264 -63.1528 -26.8802 522399.1571 -8.7046 -8.9032
ENERGY: 2000 1464.0981 2149.8910 3129.6262 0.0000 -184045.1663 23223.3221 806.8422 0.0000 27755.6159 -125515.7708 269.8597 -153271.3867 -125483.6752 264.3948 -76.7754 -51.8767 516862.6051 -11.5557 -11.6997
ENERGY: 3000 1510.8828 2183.7336 3154.5383 0.0000 -179412.2503 21813.5578 803.8330 0.0000 29487.8898 -120457.8150 286.7020 -149945.7049 -120415.8938 284.4224 -30.0205 -58.5490 511559.7554 -21.6913 -22.3031
ENERGY: 4000 1550.2711 2256.1325 3151.1913 0.0000 -176930.3816 20624.6044 800.5120 0.0000 30405.4847 -118142.1855 295.6236 -148547.6702 -118091.0666 293.3837 -15.6094 0.1124 508276.1309 -2.5804 -2.7416
ENERGY: 5000 1603.5849 2244.6695 3165.2960 0.0000 -175874.7106 20555.6317 825.7131 0.0000 30553.7540 -116926.0614 297.0651 -147479.8154 -116875.1819 298.4889 -99.3149 17.0551 507109.7808 -9.3526 -9.4161
TCL: Setting parameter constraintScaling to 5.0
TCL: Running for 5000 steps
ETITLE: TS BOND ANGLE DIHED IMPRP ELECT VDW BOUNDARY MISC KINETIC TOTAL TEMP POTENTIAL TOTAL3 TEMPAVG PRESSURE GPRESSURE VOLUME PRESSAVG GPRESSAVG
ENERGY: 5000 1603.5849 2244.6695 3165.2960 0.0000 -175874.7106 20555.6317 412.8566 0.0000 30551.7060 -117340.9659 297.0452 -147892.6719 -117296.9602 297.0452 -153.7590 -28.7728 507109.7808 -153.7590 -28.7728
ENERGY: 6000 1548.3440 2281.8378 3161.5600 0.0000 -175554.5599 20349.7517 638.8534 0.0000 30823.3532 -116750.8599 299.6864 -147574.2130 -116700.5740 298.5849 -65.8289 -25.6695 504537.9048 -11.3511 -11.5184
ENERGY: 7000 1635.0237 2314.1463 3164.2588 0.0000 -175711.3732 20358.1233 640.8686 0.0000 30693.1796 -116905.7727 298.4207 -147598.9523 -116853.5115 299.3790 10.4101 46.8117 504321.3386 9.6623 9.1821
ENERGY: 8000 1600.6580 2328.5430 3164.7811 0.0000 -175912.5589 20281.6075 655.0218 0.0000 30845.0495 -117036.8979 299.8973 -147881.9475 -116998.7995 298.6115 -155.5788 -76.5412 503477.4765 -5.8581 -6.0583
ENERGY: 9000 1619.1066 2286.4497 3176.6898 0.0000 -175397.0989 20222.6317 662.7802 0.0000 30655.9072 -116773.5337 298.0583 -147429.4409 -116721.0062 299.4462 19.8478 83.6551 500791.2462 -9.6663 -9.6069
ENERGY: 10000 1592.2180 2295.5778 3159.2943 0.0000 -175764.4723 20347.3896 657.6798 0.0000 30622.5898 -117089.7231 297.7344 -147712.3129 -117039.0101 299.4014 -48.7904 -2.0108 500669.4518 -1.2591 -1.0904
TCL: Setting parameter constraintScaling to 2.5
TCL: Running for 5000 steps
ETITLE: TS BOND ANGLE DIHED IMPRP ELECT VDW BOUNDARY MISC KINETIC TOTAL TEMP POTENTIAL TOTAL3 TEMPAVG PRESSURE GPRESSURE VOLUME PRESSAVG GPRESSAVG
ENERGY: 10000 1592.2180 2295.5778 3159.2943 0.0000 -175764.4723 20347.3896 328.8399 0.0000 30620.5275 -117420.6253 297.7143 -148041.1528 -117375.8367 297.7143 -102.1215 -48.4505 500669.4518 -102.1215 -48.4505
ENERGY: 11000 1642.9030 2378.6198 3195.7475 0.0000 -175571.6475 20127.2119 510.9556 0.0000 30851.9623 -116864.2474 299.9645 -147716.2097 -116816.8833 299.5334 -62.6497 -3.0153 499806.2339 0.9659 1.3269
ENERGY: 12000 1625.3115 2277.7670 3196.5123 0.0000 -175923.3976 20311.9163 499.9917 0.0000 30850.8887 -117161.0102 299.9541 -148011.8989 -117123.5535 298.8045 67.1979 37.4622 500461.7949 -5.0640 -4.8875
ENERGY: 13000 1650.2703 2370.2289 3155.5398 0.0000 -176152.1551 20175.9920 528.2143 0.0000 30666.3955 -117605.5143 298.1603 -148271.9098 -117562.5938 298.4799 14.8667 9.7062 499389.8712 -5.9007 -6.2721
ENERGY: 14000 1631.0753 2355.8287 3197.7131 0.0000 -175618.0542 19906.6076 533.6112 0.0000 30920.8492 -117072.3690 300.6343 -147993.2183 -117021.9757 299.1941 -39.9152 -4.5224 501196.7897 14.8309 14.6793
ENERGY: 15000 1656.2505 2370.7602 3189.3590 0.0000 -175578.7356 20103.0357 510.1005 0.0000 30684.2178 -117065.0118 298.3336 -147749.2296 -117029.4750 299.4646 -55.5096 11.3744 501711.2135 6.1092 6.3290
TCL: Setting parameter constraintScaling to 1.25
TCL: Running for 5000 steps
ETITLE: TS BOND ANGLE DIHED IMPRP ELECT VDW BOUNDARY MISC KINETIC TOTAL TEMP POTENTIAL TOTAL3 TEMPAVG PRESSURE GPRESSURE VOLUME PRESSAVG GPRESSAVG
ENERGY: 15000 1656.2505 2370.7602 3189.3590 0.0000 -175578.7356 20103.0357 255.0503 0.0000 30682.1880 -117322.0919 298.3139 -148004.2799 -117276.8504 298.3139 -75.4497 -15.8283 501711.2135 -75.4497 -15.8283
ENERGY: 16000 1671.8527 2368.3372 3194.1422 0.0000 -175514.1839 20012.0284 439.3932 0.0000 30635.9153 -117192.5149 297.8640 -147828.4302 -117145.4261 299.7560 -64.8722 -28.1193 500392.3667 2.0582 2.2265
ENERGY: 17000 1610.7926 2319.9900 3199.9445 0.0000 -175569.2831 20017.7494 389.9350 0.0000 30764.3616 -117266.5098 299.1128 -148030.8714 -117219.9779 299.5058 -112.0815 -48.1031 500162.4312 -6.5978 -6.6598
ENERGY: 18000 1628.0409 2379.9204 3175.7935 0.0000 -175656.8173 19984.2028 399.8201 0.0000 30627.4790 -117461.5606 297.7819 -148089.0396 -117413.7329 299.5058 81.3442 28.6998 497074.5354 -16.6873 -17.4168
ENERGY: 19000 1624.1472 2361.9149 3192.4825 0.0000 -176053.8772 20164.2676 399.0670 0.0000 30776.0154 -117535.9825 299.2261 -148311.9979 -117497.5059 299.0203 53.6498 29.4901 498327.2476 5.6008 6.0671
ENERGY: 20000 1677.2791 2366.3581 3198.6432 0.0000 -175800.0029 20215.4314 380.4023 0.0000 30562.1059 -117399.7829 297.1463 -147961.8888 -117353.2964 298.8375 -35.8070 61.3108 499512.8893 13.7069 13.5646
TCL: Setting parameter constraintScaling to 0.625
TCL: Running for 5000 steps
ETITLE: TS BOND ANGLE DIHED IMPRP ELECT VDW BOUNDARY MISC KINETIC TOTAL TEMP POTENTIAL TOTAL3 TEMPAVG PRESSURE GPRESSURE VOLUME PRESSAVG GPRESSAVG
ENERGY: 20000 1677.2791 2366.3581 3198.6432 0.0000 -175800.0029 20215.4314 190.2011 0.0000 30560.0735 -117592.0164 297.1266 -148152.0899 -117549.6790 297.1266 -112.4356 -8.8991 499512.8893 -112.4356 -8.8991
ENERGY: 21000 1642.3930 2431.2031 3194.9905 0.0000 -175883.1404 20058.9239 303.5073 0.0000 30839.0873 -117413.0352 299.8393 -148252.1225 -117365.8824 299.7654 -120.5685 -51.0743 498874.9484 5.3405 5.6402
ENERGY: 22000 1648.8362 2360.1762 3204.7578 0.0000 -175326.7482 19711.6462 331.2893 0.0000 30670.2145 -117399.8280 298.1974 -148070.0424 -117360.8565 299.5085 35.6663 29.1838 498863.3516 9.9221 9.9192
ENERGY: 23000 1624.2750 2432.9955 3177.7402 0.0000 -176510.3959 20281.0423 303.8736 0.0000 30805.7032 -117884.7660 299.5148 -148690.4693 -117842.3870 299.1933 -28.5639 -25.6169 498318.0616 0.5607 0.6046
ENERGY: 24000 1611.4472 2382.6915 3211.9813 0.0000 -176154.3570 20239.3088 319.1787 0.0000 30964.9608 -117424.7886 301.0632 -148389.7495 -117375.4101 300.6618 -6.5107 12.7068 499144.5132 12.8559 13.2029
ENERGY: 25000 1674.9574 2383.5205 3213.6628 0.0000 -176121.2521 20024.1509 323.7945 0.0000 30804.2008 -117696.9652 299.5001 -148501.1660 -117659.3562 298.9974 -103.7974 -47.6235 497371.4124 -13.0280 -13.2881
TCL: Setting parameter constraintScaling to 0.3125
TCL: Running for 5000 steps
ETITLE: TS BOND ANGLE DIHED IMPRP ELECT VDW BOUNDARY MISC KINETIC TOTAL TEMP POTENTIAL TOTAL3 TEMPAVG PRESSURE GPRESSURE VOLUME PRESSAVG GPRESSAVG
ENERGY: 25000 1674.9574 2383.5205 3213.6628 0.0000 -176121.2521 20024.1509 161.8973 0.0000 30802.1468 -117860.9164 299.4802 -148663.0632 -117818.9457 299.4802 -153.4454 -95.7733 497371.4124 -153.4454 -95.7733
ENERGY: 26000 1646.1089 2418.8590 3199.4372 0.0000 -175659.0998 19834.0852 244.7546 0.0000 30651.8664 -117663.9886 298.0190 -148315.8550 -117615.2034 298.2524 39.7621 25.0137 496866.3271 -5.6215 -5.2693
ENERGY: 27000 1561.4584 2365.0970 3186.5638 0.0000 -176346.5373 20339.9681 243.5777 0.0000 30977.2225 -117672.6499 301.1824 -148649.8723 -117628.1809 299.3771 57.3987 57.8791 497761.3290 4.1856 3.8739
ENERGY: 28000 1697.1385 2391.3767 3212.9165 0.0000 -176432.7837 20406.3225 255.7992 0.0000 30802.0379 -117667.1924 299.4791 -148469.2303 -117619.9571 299.5353 -46.7988 -23.3245 498228.0508 -1.0343 -1.7485
ENERGY: 29000 1667.6474 2378.4150 3198.7556 0.0000 -175773.3218 19834.8794 252.3023 0.0000 30902.6805 -117538.6416 300.4576 -148441.3221 -117493.9874 298.6927 -64.3033 -26.7826 497223.2091 -2.2156 -2.4739
ENERGY: 30000 1602.5283 2442.0502 3228.2816 0.0000 -175618.8494 20096.9275 247.8105 0.0000 30722.1286 -117279.1225 298.7022 -148001.2512 -117228.9596 300.2657 33.8145 30.0656 497894.6118 6.6407 6.4357
TCL: Setting parameter constraintScaling to 0.15625
TCL: Running for 5000 steps
ETITLE: TS BOND ANGLE DIHED IMPRP ELECT VDW BOUNDARY MISC KINETIC TOTAL TEMP POTENTIAL TOTAL3 TEMPAVG PRESSURE GPRESSURE VOLUME PRESSAVG GPRESSAVG
ENERGY: 30000 1602.5283 2442.0502 3228.2816 0.0000 -175618.8494 20096.9275 123.9053 0.0000 30720.0978 -117405.0586 298.6824 -148125.1564 -117360.6724 298.6824 0.5954 0.6387 497894.6118 0.5954 0.6387
ENERGY: 31000 1631.2694 2467.2538 3201.1498 0.0000 -175972.8993 20079.3072 189.5598 0.0000 30812.1138 -117592.2454 299.5771 -148404.3593 -117548.9474 299.9402 -24.3079 -21.2857 496960.8981 -7.3200 -7.8795
ENERGY: 32000 1640.9075 2416.1163 3213.0059 0.0000 -176199.3621 20211.0047 210.5101 0.0000 30807.1504 -117700.6671 299.5288 -148507.8175 -117653.0825 299.2477 -83.5903 -1.9042 496575.7895 -2.4727 -2.6654
ENERGY: 33000 1622.7947 2380.4124 3222.8057 0.0000 -176051.0304 20305.4828 194.4133 0.0000 30972.4141 -117352.7073 301.1356 -148325.1214 -117308.3294 299.4503 3.9094 -59.8692 497901.6831 9.3309 8.9124
ENERGY: 34000 1655.1566 2423.2849 3190.6591 0.0000 -175912.0128 20234.6342 213.8463 0.0000 30921.1978 -117273.2339 300.6377 -148194.4317 -117220.3388 300.3191 94.9341 54.8563 496959.9511 -3.0168 -2.6608
ENERGY: 35000 1631.6911 2451.1621 3182.0754 0.0000 -175910.4577 20170.0841 203.1658 0.0000 30710.7932 -117561.4859 298.5920 -148272.2791 -117517.7380 299.9230 33.0750 43.8218 497938.5712 1.5246 1.1553
TCL: Setting parameter constraintScaling to 0.078125
TCL: Running for 5000 steps
ETITLE: TS BOND ANGLE DIHED IMPRP ELECT VDW BOUNDARY MISC KINETIC TOTAL TEMP POTENTIAL TOTAL3 TEMPAVG PRESSURE GPRESSURE VOLUME PRESSAVG GPRESSAVG
ENERGY: 35000 1631.6911 2451.1621 3182.0754 0.0000 -175910.4577 20170.0841 101.5829 0.0000 30708.7607 -117665.1013 298.5722 -148373.8620 -117620.7692 298.5722 28.1736 30.5273 497938.5712 28.1736 30.5273
ENERGY: 36000 1630.4780 2433.9232 3207.5566 0.0000 -175794.9620 20037.7297 150.7177 0.0000 30794.3380 -117540.2187 299.4043 -148334.5568 -117493.0390 299.6490 126.5748 40.6034 496970.1059 -2.9097 -3.0769
ENERGY: 37000 1652.2503 2488.0281 3175.2624 0.0000 -175784.9325 20123.0703 157.3497 0.0000 30847.0015 -117341.9702 299.9163 -148188.9717 -117292.6367 299.8918 -68.0363 43.7860 498999.8578 5.6519 5.4046
ENERGY: 38000 1616.6877 2430.1569 3207.9697 0.0000 -176238.7993 20106.4631 177.0234 0.0000 30859.9861 -117840.5124 300.0425 -148700.4985 -117809.2148 299.6372 -161.3843 -67.5769 497874.8548 -5.8377 -5.9966
ENERGY: 39000 1684.5894 2412.7621 3182.2352 0.0000 -176254.0275 20219.9562 161.7473 0.0000 30825.7378 -117766.9995 299.7095 -148592.7373 -117717.9947 299.5505 19.1983 42.9439 496994.3266 -5.5118 -5.4709
ENERGY: 40000 1635.8766 2434.9343 3229.4694 0.0000 -176223.5761 20277.0522 165.4669 0.0000 30592.2170 -117888.5595 297.4391 -148480.7765 -117846.2766 298.7324 27.1950 46.0897 497870.8224 -7.3682 -7.3607
TCL: Setting parameter constraintScaling to 0.0390625
TCL: Running for 5000 steps
ETITLE: TS BOND ANGLE DIHED IMPRP ELECT VDW BOUNDARY MISC KINETIC TOTAL TEMP POTENTIAL TOTAL3 TEMPAVG PRESSURE GPRESSURE VOLUME PRESSAVG GPRESSAVG
ENERGY: 40000 1635.8766 2434.9343 3229.4694 0.0000 -176223.5761 20277.0522 82.7335 0.0000 30590.1732 -117973.3368 297.4192 -148563.5100 -117931.1494 297.4192 37.1558 39.9373 497870.8224 37.1558 39.9373
ENERGY: 41000 1616.2624 2397.6658 3196.5267 0.0000 -176257.4286 20103.2464 108.8465 0.0000 30932.6312 -117902.2496 300.7488 -148834.8808 -117864.1278 298.7284 -24.5054 25.9614 496150.7891 -13.8865 -14.1811
ENERGY: 42000 1628.7571 2358.3050 3218.2567 0.0000 -176267.8392 20117.2961 120.7768 0.0000 30794.0601 -118030.3874 299.4016 -148824.4475 -117981.2741 299.8739 -1.2067 -13.9295 495819.0298 -5.6995 -5.6175
ENERGY: 43000 1612.4396 2358.7223 3219.1057 0.0000 -176053.6530 19980.0653 129.9250 0.0000 30672.8150 -118080.5801 298.2227 -148753.3951 -118020.3998 298.5873 -176.4077 -15.5070 495020.2177 -10.8909 -10.9467
ENERGY: 44000 1617.4701 2435.7748 3225.9549 0.0000 -176186.8485 20118.4094 123.7425 0.0000 30739.1392 -117926.3576 298.8676 -148665.4968 -117884.1920 298.9908 -35.1205 -51.3378 495496.0425 4.8293 5.2708
ENERGY: 45000 1662.7200 2436.3389 3224.5028 0.0000 -176097.5635 20012.1361 121.4028 0.0000 30724.3341 -117916.1287 298.7236 -148640.4628 -117870.5356 298.9860 -81.5900 34.3799 495691.9801 3.7881 3.1826
TCL: Setting parameter constraintScaling to 0.01953125
TCL: Running for 5000 steps
ETITLE: TS BOND ANGLE DIHED IMPRP ELECT VDW BOUNDARY MISC KINETIC TOTAL TEMP POTENTIAL TOTAL3 TEMPAVG PRESSURE GPRESSURE VOLUME PRESSAVG GPRESSAVG
ENERGY: 45000 1662.7200 2436.3389 3224.5028 0.0000 -176097.5635 20012.1361 60.7014 0.0000 30722.2634 -117978.9007 298.7035 -148701.1642 -117938.4333 298.7035 -82.6369 31.8167 495691.9801 -82.6369 31.8167
ENERGY: 46000 1630.3618 2437.7438 3252.8155 0.0000 -176342.6983 20232.9035 71.2232 0.0000 30815.6710 -117901.9796 299.6117 -148717.6506 -117862.1616 299.1088 -7.7828 52.1503 495766.3592 9.4707 9.4769
ENERGY: 47000 1674.0547 2365.1406 3222.0238 0.0000 -175972.5712 20138.3686 84.9044 0.0000 30928.2549 -117559.8242 300.7063 -148488.0791 -117505.3659 300.3210 -45.1772 -65.7632 495426.5380 -1.9539 -1.9560
ENERGY: 48000 1684.3012 2352.6936 3217.8822 0.0000 -175745.3452 19950.0861 93.7529 0.0000 30731.6932 -117714.9360 298.7952 -148446.6292 -117664.6968 300.0533 39.6784 34.4434 496611.9499 4.3503 3.8706
ENERGY: 49000 1614.8701 2375.1579 3217.0635 0.0000 -176021.4100 20133.8984 96.9636 0.0000 30737.4252 -117846.0313 298.8509 -148583.4564 -117806.9936 298.9517 42.9937 38.8420 497075.0113 4.3699 4.1779
ENERGY: 50000 1653.8772 2360.8834 3175.4104 0.0000 -176152.8015 20120.1232 94.7653 0.0000 30846.8608 -117900.8813 299.9149 -148747.7421 -117852.3488 298.9817 -83.7114 12.0081 497306.3186 9.1548 9.2049
TCL: Setting parameter constraintScaling to 0
TCL: Running for 5000 steps
ETITLE: TS BOND ANGLE DIHED IMPRP ELECT VDW BOUNDARY MISC KINETIC TOTAL TEMP POTENTIAL TOTAL3 TEMPAVG PRESSURE GPRESSURE VOLUME PRESSAVG GPRESSAVG
ENERGY: 50000 1653.8772 2360.8834 3175.4104 0.0000 -176152.8015 20120.1232 0.0000 0.0000 30844.8321 -117997.6752 299.8952 -148842.5074 -117959.5799 299.8952 -108.4860 -7.8619 497306.3186 -108.4860 -7.8619
ENERGY: 51000 1592.9337 2419.4548 3215.6275 0.0000 -176230.3782 20115.2013 0.0000 0.0000 30819.8057 -118067.3553 299.6519 -148887.1610 -118015.1080 299.0983 -49.9097 29.4382 496209.8691 -5.3557 -4.8746
ENERGY: 52000 1618.1209 2406.6061 3233.4071 0.0000 -175615.1004 20000.0408 0.0000 0.0000 30788.5537 -117568.3718 299.3480 -148356.9255 -117521.1151 299.9097 -22.9239 -5.6860 496104.4052 -1.2088 -0.9342
ENERGY: 53000 1623.6618 2400.5229 3217.5793 0.0000 -176002.6875 19979.6641 0.0000 0.0000 30714.6467 -118066.6126 298.6294 -148781.2593 -118019.7993 299.2120 -262.1318 -77.9921 496019.1328 -1.8770 -2.3341
ENERGY: 54000 1708.1462 2446.4390 3226.8572 0.0000 -175832.7754 20006.6198 0.0000 0.0000 30747.0638 -117697.6495 298.9446 -148444.7133 -117662.2639 300.4650 -177.7302 -92.9971 496437.2717 5.7698 5.9052
ENERGY: 55000 1667.9830 2429.9890 3215.2391 0.0000 -175656.2866 20303.6288 0.0000 0.0000 30558.9143 -117480.5323 297.1153 -148039.4466 -117435.9614 300.2730 61.1802 99.2624 497117.2279 7.7893 7.4298
