Info: SIMULATION PARAMETERS:
Info: TIMESTEP               2
Info: NUMBER OF STEPS        0
Info: STEPS PER CYCLE        10
Info: PERIODIC CELL BASIS 1  72.449 0 0
Info: PERIODIC CELL BASIS 2  0 93.247 0
Info: PERIODIC CELL BASIS 3  0 0 79.185
Info: PERIODIC CELL CENTER   -0.248 -0.156 -0.047
Info: WRAPPING WATERS AROUND PERIODIC BOUNDARIES ON OUTPUT.
Info: WRAPPING ALL CLUSTERS AROUND PERIODIC BOUNDARIES ON OUTPUT.
Info: FIRST LDB TIMESTEP     50
Info: LAST LDB TIMESTEP     -1
Info: HOM BACKGROUND SCALING 1
Info: PME BACKGROUND SCALING 1
Info: MIN ATOMS PER PATCH    40
Info: INITIAL TEMPERATURE    0
Info: CENTER OF MASS MOVING INITIALLY? NO
Info: DIELECTRIC             1
Info: EXCLUDE                SCALED ONE-FOUR
Info: 1-4 ELECTROSTATICS SCALED BY 0.833333
Info: MODIFIED 1-4 VDW PARAMETERS WILL BE USED
Info: NO DCD TRAJECTORY OUTPUT
Info: NO EXTENDED SYSTEM TRAJECTORY OUTPUT
Info: NO VELOCITY DCD OUTPUT
Info: NO FORCE DCD OUTPUT
Info: OUTPUT FILENAME        ../replicas/rep33/equilibration/eq0
Info: NO RESTART FILE
Info: SWITCHING ACTIVE
Info: SWITCHING ON           10
Info: SWITCHING OFF          12
Info: PAIRLIST DISTANCE      13.5
Info: PAIRLIST SHRINK RATE   0.01
Info: PAIRLIST GROW RATE     0.01
Info: PAIRLIST TRIGGER       0.3
Info: PAIRLISTS PER CYCLE    2
Info: PAIRLISTS ENABLED
Info: MARGIN                 0
Info: HYDROGEN GROUP CUTOFF  2.5
Info: PATCH DIMENSION        16
Info: ENERGY OUTPUT STEPS    500
Info: CROSSTERM ENERGY INCLUDED IN DIHEDRAL
Info: TIMING OUTPUT STEPS    5000
Info: PRESSURE OUTPUT STEPS  500
Info: HARMONIC CONSTRAINTS ACTIVE
Info: HARMONIC CONS EXP      2
Info: HARMONIC CONS SCALING  10
Info: CONJUGATE GRADIENT MINIMIZATION ACTIVE
Info: LINE MINIMIZATION GOAL = 0.001
Info: BABY STEP SIZE = 0.01
Info: TINY STEP SIZE = 1e-06
Info: PARTICLE MESH EWALD (PME) ACTIVE
Info: PME TOLERANCE               1e-06
Info: PME EWALD COEFFICIENT       0.257952
Info: PME INTERPOLATION ORDER     4
Info: PME GRID DIMENSIONS         80 96 80
Info: PME MAXIMUM GRID SPACING    1
Info: FULL ELECTROSTATIC EVALUATION FREQUENCY      2
Info: USING VERLET I (r-RESPA) MTS SCHEME.
Info: C1 SPLITTING OF LONG RANGE ELECTROSTATICS
Info: PLACING ATOMS IN PATCHES BY HYDROGEN GROUPS
Info: RIGID BONDS TO HYDROGEN : ALL
Info:         ERROR TOLERANCE : 1e-05
Info:          MAX ITERATIONS : 100
Info: RIGID WATER USING SETTLE ALGORITHM
Info: RANDOM NUMBER SEED     1503705765
Info: USE HYDROGEN BONDS?    NO
Info: Using AMBER format force field!
Info: AMBER PARM FILE        ../build/complex.top
Info: COORDINATE PDB         ../build/complex.pdb
Info: Exclusions in PARM file will be ignored!
Info: SCNB (VDW SCALING)     2
Info: USING ARITHMETIC MEAN TO COMBINE L-J SIGMA PARAMETERS
Info: SUMMARY OF PARAMETERS:
Info: 71 BONDS
Info: 145 ANGLES
Info: 76 DIHEDRAL
Info: 0 IMPROPER
Info: 0 CROSSTERM
Info: 0 VDW
Info: 190 VDW_PAIRS
Info: 0 NBTHOLE_PAIRS
Info: STRUCTURE SUMMARY:
Info: 49394 ATOMS
Info: 49448 BONDS
Info: 8698 ANGLES
Info: 18780 DIHEDRALS
Info: 0 IMPROPERS
Info: 0 CROSSTERMS
Info: 0 EXCLUSIONS
Info: 2336 CONSTRAINTS
Info: 47058 RIGID BONDS
Info: 101124 DEGREES OF FREEDOM
Info: 17225 HYDROGEN GROUPS
Info: 4 ATOMS IN LARGEST HYDROGEN GROUP
Info: 17225 MIGRATION GROUPS
Info: 4 ATOMS IN LARGEST MIGRATION GROUP
Info: TOTAL MASS = 301478 amu
Info: TOTAL CHARGE = 1.00115e-05 e
Info: MASS DENSITY = 0.935846 g/cm^3
Info: ATOM DENSITY = 0.0923345 atoms/A^3
Info: ADDED 70656 IMPLICIT EXCLUSIONS
Info: NONBONDED TABLE R-SQUARED SPACING: 0.0625
Info: NONBONDED TABLE SIZE: 769 POINTS
Info: REMOVING COM VELOCITY 0 0 0
TCL: Minimizing for 100 steps
ETITLE: TS BOND ANGLE DIHED IMPRP ELECT VDW BOUNDARY MISC KINETIC TOTAL TEMP POTENTIAL TOTAL3 TEMPAVG PRESSURE GPRESSURE VOLUME PRESSAVG GPRESSAVG
ENERGY: 0 155.4176 1012.2698 2855.7272 0.0000 -154496.7912 207729.2052 0.0468 0.0000 0.0000 57255.8754 0.0000 57255.8754 57255.8754 0.0000 116350.2532 86546.1670 534946.2959 116350.2532 86546.1670
ENERGY: 20 304.7556 935.7912 2893.4663 0.0000 -158672.9408 17936.6592 143.9454 0.0000 0.0000 -136458.3230 0.0000 -136458.3230 -136458.3230 0.0000 16523.9385 -239.4561 534946.2959 16523.9385 -239.4561
ENERGY: 40 198.7451 799.5729 2896.9273 0.0000 -162811.4525 16417.9538 221.3030 0.0000 0.0000 -142276.9505 0.0000 -142276.9505 -142276.9505 0.0000 15011.2704 -2135.4696 534946.2959 15011.2704 -2135.4696
ENERGY: 60 130.5282 715.3440 2898.2166 0.0000 -167496.1574 15446.7538 315.2796 0.0000 0.0000 -147990.0351 0.0000 -147990.0351 -147990.0351 0.0000 13793.8836 -3799.3988 534946.2959 13793.8836 -3799.3988
ENERGY: 80 431.2729 765.6306 2904.3787 0.0000 -169937.5354 15121.1516 372.0124 0.0000 0.0000 -150343.0892 0.0000 -150343.0892 -150343.0892 0.0000 13270.3294 -4577.2466 534946.2959 13270.3294 -4577.2466
ENERGY: 100 119.3850 710.0600 2905.2591 0.0000 -171259.7121 14991.7870 387.3613 0.0000 0.0000 -152145.8598 0.0000 -152145.8598 -152145.8598 0.0000 13056.2657 -4908.1720 534946.2959 13056.2657 -4908.1720
TCL: Setting parameter constraintScaling to 5.0
TCL: Minimizing for 100 steps
ETITLE: TS BOND ANGLE DIHED IMPRP ELECT VDW BOUNDARY MISC KINETIC TOTAL TEMP POTENTIAL TOTAL3 TEMPAVG PRESSURE GPRESSURE VOLUME PRESSAVG GPRESSAVG
ENERGY: 100 119.3850 710.0600 2905.2591 0.0000 -171259.7121 14991.7870 193.6806 0.0000 0.0000 -152339.5404 0.0000 -152339.5404 -152339.5404 0.0000 13672.7718 -23021.8183 534946.2959 13672.7718 -23021.8183
ENERGY: 120 108.8815 687.5834 2912.9265 0.0000 -172865.8806 14798.2709 281.1914 0.0000 0.0000 -154077.0268 0.0000 -154077.0268 -154077.0268 0.0000 13218.2557 -4906.0156 534946.2959 13218.2557 -4906.0156
ENERGY: 140 309.4029 708.8622 2913.8025 0.0000 -174236.7296 14731.4783 326.6412 0.0000 0.0000 -155246.5426 0.0000 -155246.5426 -155246.5426 0.0000 12971.5214 -5303.2560 534946.2959 12971.5214 -5303.2560
ENERGY: 160 265.3721 683.1548 2923.1820 0.0000 -176276.0674 14757.3792 382.9168 0.0000 0.0000 -157264.0624 0.0000 -157264.0624 -157264.0624 0.0000 12740.8662 -5743.6183 534946.2959 12740.8662 -5743.6183
ENERGY: 180 268.8042 744.0971 2928.5662 0.0000 -178995.9216 15023.6000 473.3293 0.0000 0.0000 -159557.5249 0.0000 -159557.5249 -159557.5249 0.0000 12521.5771 -6224.4019 534946.2959 12521.5771 -6224.4019
ENERGY: 200 238.9925 694.0804 2941.3687 0.0000 -181556.7068 15587.1548 546.2744 0.0000 0.0000 -161548.8361 0.0000 -161548.8361 -161548.8361 0.0000 12582.6541 -6431.1697 534946.2959 12582.6541 -6431.1697
TCL: Setting parameter constraintScaling to 2.5
TCL: Minimizing for 100 steps
ETITLE: TS BOND ANGLE DIHED IMPRP ELECT VDW BOUNDARY MISC KINETIC TOTAL TEMP POTENTIAL TOTAL3 TEMPAVG PRESSURE GPRESSURE VOLUME PRESSAVG GPRESSAVG
ENERGY: 200 238.9925 694.0804 2941.3687 0.0000 -181556.7068 15587.1548 273.1372 0.0000 0.0000 -161821.9733 0.0000 -161821.9733 -161821.9733 0.0000 13229.5719 -25662.0117 534946.2959 13229.5719 -25662.0117
ENERGY: 220 251.1250 679.8811 2933.0260 0.0000 -182083.0215 15471.0621 338.5413 0.0000 0.0000 -162409.3860 0.0000 -162409.3860 -162409.3860 0.0000 12968.1171 -6101.1997 534946.2959 12968.1171 -6101.1997
ENERGY: 240 139.3228 665.7947 2928.6061 0.0000 -182462.6358 15494.3368 343.5677 0.0000 0.0000 -162891.0078 0.0000 -162891.0078 -162891.0078 0.0000 13034.3900 -6114.2105 534946.2959 13034.3900 -6114.2105
ENERGY: 260 164.3939 683.7692 2921.5990 0.0000 -183940.9843 15800.0611 385.5125 0.0000 0.0000 -163985.6487 0.0000 -163985.6487 -163985.6487 0.0000 13031.7564 -6253.3589 534946.2959 13031.7564 -6253.3589
ENERGY: 280 168.9675 700.8451 2917.5946 0.0000 -185421.8327 16228.3354 454.8726 0.0000 0.0000 -164951.2175 0.0000 -164951.2175 -164951.2175 0.0000 13143.1517 -6345.6116 534946.2959 13143.1517 -6345.6116
ENERGY: 300 126.6778 639.5282 2916.2492 0.0000 -186093.7491 16445.3461 481.3770 0.0000 0.0000 -165484.5707 0.0000 -165484.5707 -165484.5707 0.0000 13207.5046 -6349.7141 534946.2959 13207.5046 -6349.7141
TCL: Setting parameter constraintScaling to 1.25
TCL: Minimizing for 100 steps
ETITLE: TS BOND ANGLE DIHED IMPRP ELECT VDW BOUNDARY MISC KINETIC TOTAL TEMP POTENTIAL TOTAL3 TEMPAVG PRESSURE GPRESSURE VOLUME PRESSAVG GPRESSAVG
ENERGY: 300 126.6778 639.5282 2916.2492 0.0000 -186093.7491 16445.3461 240.6885 0.0000 0.0000 -165725.2592 0.0000 -165725.2592 -165725.2592 0.0000 13655.8479 -26359.5998 534946.2959 13655.8479 -26359.5998
ENERGY: 320 140.5824 639.1531 2911.3737 0.0000 -186778.9429 16609.3462 282.7433 0.0000 0.0000 -166195.7442 0.0000 -166195.7442 -166195.7442 0.0000 13601.4296 -6016.4155 534946.2959 13601.4296 -6016.4155
ENERGY: 340 139.5300 625.3114 2909.3079 0.0000 -187247.5206 16772.0596 289.0295 0.0000 0.0000 -166512.2821 0.0000 -166512.2821 -166512.2821 0.0000 13698.2228 -5978.3092 534946.2959 13698.2228 -5978.3092
ENERGY: 360 127.4791 662.7189 2906.9950 0.0000 -188963.8847 17363.0588 351.1495 0.0000 0.0000 -167552.4835 0.0000 -167552.4835 -167552.4835 0.0000 13909.2003 -5983.6344 534946.2959 13909.2003 -5983.6344
ENERGY: 380 154.9910 637.6840 2900.9246 0.0000 -190737.6652 18068.9401 411.7117 0.0000 0.0000 -168563.4138 0.0000 -168563.4138 -168563.4138 0.0000 14089.0624 -5964.2869 534946.2959 14089.0624 -5964.2869
ENERGY: 400 144.2606 667.3290 2904.5258 0.0000 -191204.3037 18215.8370 413.3604 0.0000 0.0000 -168858.9909 0.0000 -168858.9909 -168858.9909 0.0000 14253.6838 -5890.8366 534946.2959 14253.6838 -5890.8366
TCL: Setting parameter constraintScaling to 0.625
TCL: Minimizing for 100 steps
ETITLE: TS BOND ANGLE DIHED IMPRP ELECT VDW BOUNDARY MISC KINETIC TOTAL TEMP POTENTIAL TOTAL3 TEMPAVG PRESSURE GPRESSURE VOLUME PRESSAVG GPRESSAVG
ENERGY: 400 144.2606 667.3290 2904.5258 0.0000 -191204.3037 18215.8370 206.6802 0.0000 0.0000 -169065.6711 0.0000 -169065.6711 -169065.6711 0.0000 14559.2296 -26655.4370 534946.2959 14559.2296 -26655.4370
ENERGY: 420 145.9275 627.5325 2898.0842 0.0000 -191409.3405 18263.9163 218.3990 0.0000 0.0000 -169255.4810 0.0000 -169255.4810 -169255.4810 0.0000 14452.3692 -5677.6875 534946.2959 14452.3692 -5677.6875
ENERGY: 440 197.8528 645.8603 2895.5596 0.0000 -192065.0905 18455.2531 245.8444 0.0000 0.0000 -169624.7204 0.0000 -169624.7204 -169624.7204 0.0000 14443.1869 -5743.0198 534946.2959 14443.1869 -5743.0198
ENERGY: 460 190.3709 656.2198 2882.7447 0.0000 -193659.6192 19026.1260 299.8400 0.0000 0.0000 -170604.3179 0.0000 -170604.3179 -170604.3179 0.0000 14737.5773 -5666.2905 534946.2959 14737.5773 -5666.2905
ENERGY: 480 164.7365 663.1153 2878.8280 0.0000 -194301.4024 19285.5728 314.1446 0.0000 0.0000 -170995.0052 0.0000 -170995.0052 -170995.0052 0.0000 14875.8885 -5603.0437 534946.2959 14875.8885 -5603.0437
ENERGY: 500 167.4994 655.1764 2880.1911 0.0000 -195165.8686 19655.5666 314.3318 0.0000 0.0000 -171493.1031 0.0000 -171493.1031 -171493.1031 0.0000 15058.1575 -5499.3871 534946.2959 15058.1575 -5499.3871
TCL: Setting parameter constraintScaling to 0.3125
TCL: Minimizing for 100 steps
ETITLE: TS BOND ANGLE DIHED IMPRP ELECT VDW BOUNDARY MISC KINETIC TOTAL TEMP POTENTIAL TOTAL3 TEMPAVG PRESSURE GPRESSURE VOLUME PRESSAVG GPRESSAVG
ENERGY: 500 167.4994 655.1764 2880.1911 0.0000 -195165.8686 19655.5666 157.1659 0.0000 0.0000 -171650.2690 0.0000 -171650.2690 -171650.2690 0.0000 15256.2703 -26887.2658 534946.2959 15256.2703 -26887.2658
ENERGY: 520 191.5078 730.2396 2878.9494 0.0000 -195809.2674 19842.6866 187.0175 0.0000 0.0000 -171978.8665 0.0000 -171978.8665 -171978.8665 0.0000 15245.0241 -5387.9974 534946.2959 15245.0241 -5387.9974
ENERGY: 540 163.2473 652.8776 2869.3359 0.0000 -196022.4331 19908.3131 193.4655 0.0000 0.0000 -172235.1937 0.0000 -172235.1937 -172235.1937 0.0000 15287.2801 -5381.1163 534946.2959 15287.2801 -5381.1163
ENERGY: 560 182.5655 651.9331 2871.8125 0.0000 -196540.1389 20106.7017 199.5505 0.0000 0.0000 -172527.5755 0.0000 -172527.5755 -172527.5755 0.0000 15381.3043 -5338.9160 534946.2959 15381.3043 -5338.9160
ENERGY: 580 155.8757 643.5822 2867.8427 0.0000 -196627.6547 20134.9748 202.2152 0.0000 0.0000 -172623.1641 0.0000 -172623.1641 -172623.1641 0.0000 15396.9746 -5340.2706 534946.2959 15396.9746 -5340.2706
ENERGY: 600 255.6850 741.0884 2868.7224 0.0000 -197861.4982 20663.6459 227.8999 0.0000 0.0000 -173104.4567 0.0000 -173104.4567 -173104.4567 0.0000 15642.3276 -5252.3642 534946.2959 15642.3276 -5252.3642
TCL: Setting parameter constraintScaling to 0.15625
TCL: Minimizing for 100 steps
ETITLE: TS BOND ANGLE DIHED IMPRP ELECT VDW BOUNDARY MISC KINETIC TOTAL TEMP POTENTIAL TOTAL3 TEMPAVG PRESSURE GPRESSURE VOLUME PRESSAVG GPRESSAVG
ENERGY: 600 255.6850 741.0884 2868.7224 0.0000 -197861.4982 20663.6459 113.9499 0.0000 0.0000 -173218.4066 0.0000 -173218.4066 -173218.4066 0.0000 15765.4289 -27016.9255 534946.2959 15765.4289 -27016.9255
ENERGY: 620 155.4767 640.5520 2861.0079 0.0000 -197972.4326 20665.8161 114.3330 0.0000 0.0000 -173535.2469 0.0000 -173535.2469 -173535.2469 0.0000 15742.1181 -5137.6104 534946.2959 15742.1181 -5137.6104
ENERGY: 640 153.6101 651.6796 2861.9431 0.0000 -198184.3893 20741.7487 117.2289 0.0000 0.0000 -173658.1788 0.0000 -173658.1788 -173658.1788 0.0000 15803.2072 -5103.1650 534946.2959 15803.2072 -5103.1650
ENERGY: 660 161.1324 648.8410 2856.4437 0.0000 -198548.2315 20867.3790 125.2939 0.0000 0.0000 -173889.1416 0.0000 -173889.1416 -173889.1416 0.0000 15841.7387 -5112.8193 534946.2959 15841.7387 -5112.8193
ENERGY: 680 163.6612 649.5285 2855.5854 0.0000 -198702.4475 20909.1989 127.9559 0.0000 0.0000 -173996.5177 0.0000 -173996.5177 -173996.5177 0.0000 15837.1381 -5131.0026 534946.2959 15837.1381 -5131.0026
ENERGY: 700 177.1887 680.8504 2849.3572 0.0000 -199211.1928 21136.7498 135.4142 0.0000 0.0000 -174231.6324 0.0000 -174231.6324 -174231.6324 0.0000 15969.1440 -5077.3872 534946.2959 15969.1440 -5077.3872
TCL: Setting parameter constraintScaling to 0.078125
TCL: Minimizing for 100 steps
ETITLE: TS BOND ANGLE DIHED IMPRP ELECT VDW BOUNDARY MISC KINETIC TOTAL TEMP POTENTIAL TOTAL3 TEMPAVG PRESSURE GPRESSURE VOLUME PRESSAVG GPRESSAVG
ENERGY: 700 177.1887 680.8504 2849.3572 0.0000 -199211.1928 21136.7498 67.7071 0.0000 0.0000 -174299.3395 0.0000 -174299.3395 -174299.3395 0.0000 16037.4905 -27068.7571 534946.2959 16037.4905 -27068.7571
ENERGY: 720 176.4685 665.1322 2850.6599 0.0000 -199444.8346 21177.2039 69.5574 0.0000 0.0000 -174505.8127 0.0000 -174505.8127 -174505.8127 0.0000 16044.8997 -5019.5768 534946.2959 16044.8997 -5019.5768
ENERGY: 740 167.5504 653.5222 2847.4263 0.0000 -199690.3493 21273.5026 72.3281 0.0000 0.0000 -174676.0197 0.0000 -174676.0197 -174676.0197 0.0000 16061.2093 -5019.8630 534946.2959 16061.2093 -5019.8630
ENERGY: 760 172.5736 664.8774 2840.2625 0.0000 -200542.0488 21579.8286 81.7519 0.0000 0.0000 -175202.7548 0.0000 -175202.7548 -175202.7548 0.0000 16217.2332 -4973.4225 534946.2959 16217.2332 -4973.4225
ENERGY: 780 160.4643 652.6715 2836.5427 0.0000 -200924.2208 21730.2998 85.4646 0.0000 0.0000 -175458.7778 0.0000 -175458.7778 -175458.7778 0.0000 16287.2181 -4947.2905 534946.2959 16287.2181 -4947.2905
ENERGY: 800 201.7589 655.7088 2835.4683 0.0000 -201537.7451 22009.9819 88.5524 0.0000 0.0000 -175746.2748 0.0000 -175746.2748 -175746.2748 0.0000 16425.0086 -4874.5090 534946.2959 16425.0086 -4874.5090
TCL: Setting parameter constraintScaling to 0.0390625
TCL: Minimizing for 100 steps
ETITLE: TS BOND ANGLE DIHED IMPRP ELECT VDW BOUNDARY MISC KINETIC TOTAL TEMP POTENTIAL TOTAL3 TEMPAVG PRESSURE GPRESSURE VOLUME PRESSAVG GPRESSAVG
ENERGY: 800 201.7589 655.7088 2835.4683 0.0000 -201537.7451 22009.9819 44.2762 0.0000 0.0000 -175790.5510 0.0000 -175790.5510 -175790.5510 0.0000 16465.4131 -27194.3095 534946.2959 16465.4131 -27194.3095
ENERGY: 820 157.2426 643.9001 2831.3198 0.0000 -201657.7916 22018.5712 45.1210 0.0000 0.0000 -175961.6370 0.0000 -175961.6370 -175961.6370 0.0000 16475.0328 -4846.9763 534946.2959 16475.0328 -4846.9763
ENERGY: 840 226.2756 684.8515 2828.2403 0.0000 -202464.0562 22332.1028 50.5616 0.0000 0.0000 -176342.0243 0.0000 -176342.0243 -176342.0243 0.0000 16606.1917 -4808.2378 534946.2959 16606.1917 -4808.2378
ENERGY: 860 173.7223 659.8115 2826.7369 0.0000 -202551.7591 22368.3566 50.2301 0.0000 0.0000 -176472.9017 0.0000 -176472.9017 -176472.9017 0.0000 16622.1776 -4794.7179 534946.2959 16622.1776 -4794.7179
ENERGY: 880 170.2195 654.6067 2825.4363 0.0000 -202773.1791 22463.5458 50.8227 0.0000 0.0000 -176608.5482 0.0000 -176608.5482 -176608.5482 0.0000 16694.8590 -4757.5273 534946.2959 16694.8590 -4757.5273
ENERGY: 900 161.6461 652.8531 2824.4521 0.0000 -203364.3903 22719.1912 53.3946 0.0000 0.0000 -176952.8533 0.0000 -176952.8533 -176952.8533 0.0000 16823.4732 -4693.3763 534946.2959 16823.4732 -4693.3763
TCL: Setting parameter constraintScaling to 0.01953125
TCL: Minimizing for 100 steps
ETITLE: TS BOND ANGLE DIHED IMPRP ELECT VDW BOUNDARY MISC KINETIC TOTAL TEMP POTENTIAL TOTAL3 TEMPAVG PRESSURE GPRESSURE VOLUME PRESSAVG GPRESSAVG
ENERGY: 900 161.6461 652.8531 2824.4521 0.0000 -203364.3903 22719.1912 26.6973 0.0000 0.0000 -176979.5506 0.0000 -176979.5506 -176979.5506 0.0000 16846.2551 -27255.7338 534946.2959 16846.2551 -27255.7338
ENERGY: 920 173.4139 656.1776 2820.1102 0.0000 -203605.1793 22809.2707 27.8457 0.0000 0.0000 -177118.3612 0.0000 -177118.3612 -177118.3612 0.0000 16871.1276 -4672.9361 534946.2959 16871.1276 -4672.9361
ENERGY: 940 216.6740 677.8579 2818.4162 0.0000 -203836.8903 22906.5373 28.4817 0.0000 0.0000 -177188.9233 0.0000 -177188.9233 -177188.9233 0.0000 16919.6848 -4665.2666 534946.2959 16919.6848 -4665.2666
ENERGY: 960 191.2273 671.8413 2818.8095 0.0000 -204193.7811 23077.2783 29.2444 0.0000 0.0000 -177405.3803 0.0000 -177405.3803 -177405.3803 0.0000 17035.7378 -4585.9846 534946.2959 17035.7378 -4585.9846
ENERGY: 980 220.4817 672.4046 2817.5740 0.0000 -204721.3257 23305.6702 30.7123 0.0000 0.0000 -177674.4829 0.0000 -177674.4829 -177674.4829 0.0000 17136.7262 -4537.4917 534946.2959 17136.7262 -4537.4917
ENERGY: 1000 208.3153 673.0362 2814.7952 0.0000 -205073.3774 23478.5589 32.1034 0.0000 0.0000 -177866.5684 0.0000 -177866.5684 -177866.5684 0.0000 17228.7682 -4490.6126 534946.2959 17228.7682 -4490.6126
TCL: Setting parameter constraintScaling to 0
TCL: Minimizing for 5000 steps
ETITLE: TS BOND ANGLE DIHED IMPRP ELECT VDW BOUNDARY MISC KINETIC TOTAL TEMP POTENTIAL TOTAL3 TEMPAVG PRESSURE GPRESSURE VOLUME PRESSAVG GPRESSAVG
ENERGY: 1000 208.3153 673.0362 2814.7952 0.0000 -205073.3774 23478.5589 0.0000 0.0000 0.0000 -177898.6718 0.0000 -177898.6718 -177898.6718 0.0000 17254.4789 -27252.7849 534946.2959 17254.4789 -27252.7849
ENERGY: 2000 191.4633 666.0042 2796.9274 0.0000 -215046.2780 27885.1719 0.0000 0.0000 0.0000 -183506.7111 0.0000 -183506.7111 -183506.7111 0.0000 19575.6900 -3265.5580 534946.2959 19575.6900 -3265.5580
ENERGY: 3000 181.1809 666.1452 2792.1507 0.0000 -217713.9056 28969.9070 0.0000 0.0000 0.0000 -185104.5217 0.0000 -185104.5217 -185104.5217 0.0000 20153.3234 -2953.1867 534946.2959 20153.3234 -2953.1867
ENERGY: 4000 165.5904 662.8699 2786.8403 0.0000 -218806.1748 29435.4598 0.0000 0.0000 0.0000 -185755.4143 0.0000 -185755.4143 -185755.4143 0.0000 20401.5239 -2816.7970 534946.2959 20401.5239 -2816.7970
ENERGY: 5000 168.6050 664.1274 2785.8642 0.0000 -219401.8912 29665.9488 0.0000 0.0000 0.0000 -186117.3457 0.0000 -186117.3457 -186117.3457 0.0000 20515.4668 -2774.4345 534946.2959 20515.4668 -2774.4345
ENERGY: 6000 165.1325 662.0808 2786.8202 0.0000 -219886.8126 29855.5602 0.0000 0.0000 0.0000 -186417.2190 0.0000 -186417.2190 -186417.2190 0.0000 20623.3073 -2706.3923 534946.2959 20623.3073 -2706.3923
