Info: SIMULATION PARAMETERS:
Info: TIMESTEP               2
Info: NUMBER OF STEPS        0
Info: STEPS PER CYCLE        10
Info: PERIODIC CELL BASIS 1  70.7487 0 0
Info: PERIODIC CELL BASIS 2  0 91.0587 0
Info: PERIODIC CELL BASIS 3  0 0 77.3267
Info: PERIODIC CELL CENTER   -0.248 -0.156 -0.047
Info: WRAPPING WATERS AROUND PERIODIC BOUNDARIES ON OUTPUT.
Info: WRAPPING ALL CLUSTERS AROUND PERIODIC BOUNDARIES ON OUTPUT.
Info: FIRST LDB TIMESTEP     50
Info: LAST LDB TIMESTEP     -1
Info: HOM BACKGROUND SCALING 1
Info: PME BACKGROUND SCALING 1
Info: MIN ATOMS PER PATCH    40
Info: VELOCITY FILE          ../replicas/rep99/equilibration/eq2.vel
Info: CENTER OF MASS MOVING INITIALLY? NO
Info: DIELECTRIC             1
Info: EXCLUDE                SCALED ONE-FOUR
Info: 1-4 ELECTROSTATICS SCALED BY 0.833333
Info: MODIFIED 1-4 VDW PARAMETERS WILL BE USED
Info: DCD FILENAME           ../replicas/rep99/simulation/sim1.dcd
Info: DCD FREQUENCY          5000
Info: DCD FIRST STEP         5000
Info: DCD FILE WILL CONTAIN UNIT CELL DATA
Info: XST FILENAME           ../replicas/rep99/simulation/sim1.xst
Info: XST FREQUENCY          5000
Info: NO VELOCITY DCD OUTPUT
Info: NO FORCE DCD OUTPUT
Info: OUTPUT FILENAME        ../replicas/rep99/simulation/sim1
Info: RESTART FILENAME       ../replicas/rep99/simulation/sim1.restart
Info: RESTART FREQUENCY      200000
Info: BINARY RESTART FILES WILL BE USED
Info: SWITCHING ACTIVE
Info: SWITCHING ON           10
Info: SWITCHING OFF          12
Info: PAIRLIST DISTANCE      13.5
Info: PAIRLIST SHRINK RATE   0.01
Info: PAIRLIST GROW RATE     0.01
Info: PAIRLIST TRIGGER       0.3
Info: PAIRLISTS PER CYCLE    2
Info: PAIRLISTS ENABLED
Info: MARGIN                 0.48
Info: HYDROGEN GROUP CUTOFF  2.5
Info: PATCH DIMENSION        16.48
Info: ENERGY OUTPUT STEPS    500
Info: CROSSTERM ENERGY INCLUDED IN DIHEDRAL
Info: TIMING OUTPUT STEPS    5000
Info: PRESSURE OUTPUT STEPS  500
Info: LANGEVIN DYNAMICS ACTIVE
Info: LANGEVIN TEMPERATURE   300
Info: LANGEVIN USING BBK INTEGRATOR
Info: LANGEVIN DAMPING COEFFICIENT IS 5 INVERSE PS
Info: LANGEVIN DYNAMICS NOT APPLIED TO HYDROGENS
Info: BERENDSEN PRESSURE COUPLING ACTIVE
Info:     TARGET PRESSURE IS 1 BAR
Info:     COMPRESSIBILITY ESTIMATE IS 4.57e-05 BAR^(-1)
Info:     RELAXATION TIME IS 100 FS
Info:     APPLIED EVERY 2 STEPS
Info:     PRESSURE CONTROL IS GROUP-BASED
Info:       CELL FLUCTUATION IS ISOTROPIC
Info: PARTICLE MESH EWALD (PME) ACTIVE
Info: PME TOLERANCE               1e-06
Info: PME EWALD COEFFICIENT       0.257952
Info: PME INTERPOLATION ORDER     4
Info: PME GRID DIMENSIONS         72 96 80
Info: PME MAXIMUM GRID SPACING    1
Info: FULL ELECTROSTATIC EVALUATION FREQUENCY      2
Info: USING VERLET I (r-RESPA) MTS SCHEME.
Info: C1 SPLITTING OF LONG RANGE ELECTROSTATICS
Info: PLACING ATOMS IN PATCHES BY HYDROGEN GROUPS
Info: RIGID BONDS TO HYDROGEN : ALL
Info:         ERROR TOLERANCE : 1e-05
Info:          MAX ITERATIONS : 100
Info: RIGID WATER USING SETTLE ALGORITHM
Info: RANDOM NUMBER SEED     1503727850
Info: USE HYDROGEN BONDS?    NO
Info: Using AMBER format force field!
Info: AMBER PARM FILE        ../build/complex.top
Info: COORDINATE PDB         ../replicas/rep99/equilibration/eq2.coor
Info: Exclusions in PARM file will be ignored!
Info: SCNB (VDW SCALING)     2
Info: USING ARITHMETIC MEAN TO COMBINE L-J SIGMA PARAMETERS
Info: SUMMARY OF PARAMETERS:
Info: 71 BONDS
Info: 145 ANGLES
Info: 76 DIHEDRAL
Info: 0 IMPROPER
Info: 0 CROSSTERM
Info: 0 VDW
Info: 190 VDW_PAIRS
Info: 0 NBTHOLE_PAIRS
Info: STRUCTURE SUMMARY:
Info: 49394 ATOMS
Info: 49448 BONDS
Info: 8698 ANGLES
Info: 18780 DIHEDRALS
Info: 0 IMPROPERS
Info: 0 CROSSTERMS
Info: 0 EXCLUSIONS
Info: 47058 RIGID BONDS
Info: 101124 DEGREES OF FREEDOM
Info: 17225 HYDROGEN GROUPS
Info: 4 ATOMS IN LARGEST HYDROGEN GROUP
Info: 17225 MIGRATION GROUPS
Info: 4 ATOMS IN LARGEST MIGRATION GROUP
Info: TOTAL MASS = 301478 amu
Info: TOTAL CHARGE = 1.00115e-05 e
Info: MASS DENSITY = 1.00495 g/cm^3
Info: ATOM DENSITY = 0.0991528 atoms/A^3
Info: ADDED 70656 IMPLICIT EXCLUSIONS
Info: NONBONDED TABLE R-SQUARED SPACING: 0.0625
Info: NONBONDED TABLE SIZE: 769 POINTS
Info: REMOVING COM VELOCITY -0.0110513 -0.0264933 -0.0221512
TCL: Running for 5000 steps
ETITLE: TS BOND ANGLE DIHED IMPRP ELECT VDW BOUNDARY MISC KINETIC TOTAL TEMP POTENTIAL TOTAL3 TEMPAVG PRESSURE GPRESSURE VOLUME PRESSAVG GPRESSAVG
ENERGY: 0 858.4413 2415.2394 3224.9747 0.0000 -175945.5285 20099.7160 0.0000 0.0000 29979.6901 -119367.4670 298.3756 -149347.1571 -119266.6642 298.3756 -4.9272 27.0389 498160.4481 -4.9272 27.0389
ENERGY: 1000 865.6988 2498.3660 3201.8981 0.0000 -175320.0712 19743.2210 0.0000 0.0000 30030.4342 -118980.4530 298.8806 -149010.8873 -118869.7384 299.5990 17.4463 37.7878 495502.0628 -1.2205 -1.5840
ENERGY: 2000 890.4483 2429.7453 3209.2691 0.0000 -175954.3327 20052.0639 0.0000 0.0000 30056.7938 -119316.0123 299.1430 -149372.8061 -119206.3242 299.3442 50.9012 79.5392 496261.2372 -5.1169 -5.0615
ENERGY: 3000 877.4269 2464.7689 3226.0131 0.0000 -176139.3419 20096.5594 0.0000 0.0000 29916.9487 -119557.6248 297.7511 -149474.5735 -119452.3486 298.9003 -58.4443 -23.7374 496865.9629 2.8318 2.8579
ENERGY: 4000 857.6229 2477.5527 3205.5867 0.0000 -175421.6385 19819.2867 0.0000 0.0000 29983.0636 -119078.5259 298.4092 -149061.5895 -118978.0321 299.4525 -53.0990 -26.6934 497227.9267 3.2316 2.9496
ENERGY: 5000 903.2752 2439.5867 3204.7926 0.0000 -176070.8442 20108.0140 0.0000 0.0000 29858.0222 -119557.1536 297.1647 -149415.1757 -119479.7129 298.8374 -60.0852 -30.9136 494897.1437 -3.9630 -4.1065
