Info: SIMULATION PARAMETERS:
Info: TIMESTEP               2
Info: NUMBER OF STEPS        0
Info: STEPS PER CYCLE        10
Info: PERIODIC CELL BASIS 1  72.449 0 0
Info: PERIODIC CELL BASIS 2  0 93.247 0
Info: PERIODIC CELL BASIS 3  0 0 79.185
Info: PERIODIC CELL CENTER   -0.248 -0.156 -0.047
Info: WRAPPING WATERS AROUND PERIODIC BOUNDARIES ON OUTPUT.
Info: WRAPPING ALL CLUSTERS AROUND PERIODIC BOUNDARIES ON OUTPUT.
Info: FIRST LDB TIMESTEP     50
Info: LAST LDB TIMESTEP     -1
Info: HOM BACKGROUND SCALING 1
Info: PME BACKGROUND SCALING 1
Info: MIN ATOMS PER PATCH    40
Info: INITIAL TEMPERATURE    0
Info: CENTER OF MASS MOVING INITIALLY? NO
Info: DIELECTRIC             1
Info: EXCLUDE                SCALED ONE-FOUR
Info: 1-4 ELECTROSTATICS SCALED BY 0.833333
Info: MODIFIED 1-4 VDW PARAMETERS WILL BE USED
Info: NO DCD TRAJECTORY OUTPUT
Info: NO EXTENDED SYSTEM TRAJECTORY OUTPUT
Info: NO VELOCITY DCD OUTPUT
Info: NO FORCE DCD OUTPUT
Info: OUTPUT FILENAME        ../replicas/rep44/equilibration/eq0
Info: NO RESTART FILE
Info: SWITCHING ACTIVE
Info: SWITCHING ON           10
Info: SWITCHING OFF          12
Info: PAIRLIST DISTANCE      13.5
Info: PAIRLIST SHRINK RATE   0.01
Info: PAIRLIST GROW RATE     0.01
Info: PAIRLIST TRIGGER       0.3
Info: PAIRLISTS PER CYCLE    2
Info: PAIRLISTS ENABLED
Info: MARGIN                 0
Info: HYDROGEN GROUP CUTOFF  2.5
Info: PATCH DIMENSION        16
Info: ENERGY OUTPUT STEPS    500
Info: CROSSTERM ENERGY INCLUDED IN DIHEDRAL
Info: TIMING OUTPUT STEPS    5000
Info: PRESSURE OUTPUT STEPS  500
Info: HARMONIC CONSTRAINTS ACTIVE
Info: HARMONIC CONS EXP      2
Info: HARMONIC CONS SCALING  10
Info: CONJUGATE GRADIENT MINIMIZATION ACTIVE
Info: LINE MINIMIZATION GOAL = 0.001
Info: BABY STEP SIZE = 0.01
Info: TINY STEP SIZE = 1e-06
Info: PARTICLE MESH EWALD (PME) ACTIVE
Info: PME TOLERANCE               1e-06
Info: PME EWALD COEFFICIENT       0.257952
Info: PME INTERPOLATION ORDER     4
Info: PME GRID DIMENSIONS         80 96 80
Info: PME MAXIMUM GRID SPACING    1
Info: FULL ELECTROSTATIC EVALUATION FREQUENCY      2
Info: USING VERLET I (r-RESPA) MTS SCHEME.
Info: C1 SPLITTING OF LONG RANGE ELECTROSTATICS
Info: PLACING ATOMS IN PATCHES BY HYDROGEN GROUPS
Info: RIGID BONDS TO HYDROGEN : ALL
Info:         ERROR TOLERANCE : 1e-05
Info:          MAX ITERATIONS : 100
Info: RIGID WATER USING SETTLE ALGORITHM
Info: RANDOM NUMBER SEED     1503691734
Info: USE HYDROGEN BONDS?    NO
Info: Using AMBER format force field!
Info: AMBER PARM FILE        ../build/complex.top
Info: COORDINATE PDB         ../build/complex.pdb
Info: Exclusions in PARM file will be ignored!
Info: SCNB (VDW SCALING)     2
Info: USING ARITHMETIC MEAN TO COMBINE L-J SIGMA PARAMETERS
Info: SUMMARY OF PARAMETERS:
Info: 71 BONDS
Info: 145 ANGLES
Info: 76 DIHEDRAL
Info: 0 IMPROPER
Info: 0 CROSSTERM
Info: 0 VDW
Info: 190 VDW_PAIRS
Info: 0 NBTHOLE_PAIRS
Info: STRUCTURE SUMMARY:
Info: 49394 ATOMS
Info: 49448 BONDS
Info: 8698 ANGLES
Info: 18780 DIHEDRALS
Info: 0 IMPROPERS
Info: 0 CROSSTERMS
Info: 0 EXCLUSIONS
Info: 2336 CONSTRAINTS
Info: 47058 RIGID BONDS
Info: 101124 DEGREES OF FREEDOM
Info: 17225 HYDROGEN GROUPS
Info: 4 ATOMS IN LARGEST HYDROGEN GROUP
Info: 17225 MIGRATION GROUPS
Info: 4 ATOMS IN LARGEST MIGRATION GROUP
Info: TOTAL MASS = 301478 amu
Info: TOTAL CHARGE = 1.00115e-05 e
Info: MASS DENSITY = 0.935846 g/cm^3
Info: ATOM DENSITY = 0.0923345 atoms/A^3
Info: ADDED 70656 IMPLICIT EXCLUSIONS
Info: NONBONDED TABLE R-SQUARED SPACING: 0.0625
Info: NONBONDED TABLE SIZE: 769 POINTS
Info: REMOVING COM VELOCITY 0 0 0
TCL: Minimizing for 100 steps
ETITLE: TS BOND ANGLE DIHED IMPRP ELECT VDW BOUNDARY MISC KINETIC TOTAL TEMP POTENTIAL TOTAL3 TEMPAVG PRESSURE GPRESSURE VOLUME PRESSAVG GPRESSAVG
ENERGY: 0 155.4176 1012.2698 2855.7272 0.0000 -154496.7912 207729.2052 0.0468 0.0000 0.0000 57255.8754 0.0000 57255.8754 57255.8754 0.0000 116350.2532 86546.1670 534946.2959 116350.2532 86546.1670
ENERGY: 20 304.7552 935.7912 2893.4663 0.0000 -158672.9406 17936.6594 143.9454 0.0000 0.0000 -136458.3232 0.0000 -136458.3232 -136458.3232 0.0000 16523.9386 -239.4559 534946.2959 16523.9386 -239.4559
ENERGY: 40 198.7448 799.5728 2896.9273 0.0000 -162811.4529 16417.9537 221.3030 0.0000 0.0000 -142276.9513 0.0000 -142276.9513 -142276.9513 0.0000 15011.2703 -2135.4698 534946.2959 15011.2703 -2135.4698
ENERGY: 60 130.5282 715.3440 2898.2166 0.0000 -167496.1573 15446.7539 315.2796 0.0000 0.0000 -147990.0350 0.0000 -147990.0350 -147990.0350 0.0000 13793.8836 -3799.3988 534946.2959 13793.8836 -3799.3988
ENERGY: 80 431.2722 765.6307 2904.3786 0.0000 -169937.5256 15121.1528 372.0121 0.0000 0.0000 -150343.0791 0.0000 -150343.0791 -150343.0791 0.0000 13270.3316 -4577.2436 534946.2959 13270.3316 -4577.2436
ENERGY: 100 119.3867 710.0601 2905.2591 0.0000 -171259.7178 14991.7864 387.3614 0.0000 0.0000 -152145.8641 0.0000 -152145.8641 -152145.8641 0.0000 13056.2644 -4908.1739 534946.2959 13056.2644 -4908.1739
TCL: Setting parameter constraintScaling to 5.0
TCL: Minimizing for 100 steps
ETITLE: TS BOND ANGLE DIHED IMPRP ELECT VDW BOUNDARY MISC KINETIC TOTAL TEMP POTENTIAL TOTAL3 TEMPAVG PRESSURE GPRESSURE VOLUME PRESSAVG GPRESSAVG
ENERGY: 100 119.3867 710.0601 2905.2591 0.0000 -171259.7178 14991.7864 193.6807 0.0000 0.0000 -152339.5448 0.0000 -152339.5448 -152339.5448 0.0000 13672.7707 -23021.8204 534946.2959 13672.7707 -23021.8204
ENERGY: 120 108.8848 687.5848 2912.9267 0.0000 -172865.8850 14798.2705 281.1919 0.0000 0.0000 -154077.0262 0.0000 -154077.0262 -154077.0262 0.0000 13218.2541 -4906.0174 534946.2959 13218.2541 -4906.0174
ENERGY: 140 309.4564 708.8728 2913.8025 0.0000 -174236.6174 14731.4846 326.6378 0.0000 0.0000 -155246.3632 0.0000 -155246.3632 -155246.3632 0.0000 12971.5313 -5303.2318 534946.2959 12971.5313 -5303.2318
ENERGY: 160 265.1220 683.0813 2923.1671 0.0000 -176274.6084 14757.2933 382.8619 0.0000 0.0000 -157263.0828 0.0000 -157263.0828 -157263.0828 0.0000 12741.0514 -5742.0170 534946.2959 12741.0514 -5742.0170
ENERGY: 180 268.9655 744.0943 2928.5659 0.0000 -178994.7977 15023.4133 473.2705 0.0000 0.0000 -159556.4883 0.0000 -159556.4883 -159556.4883 0.0000 12521.6366 -6222.9915 534946.2959 12521.6366 -6222.9915
ENERGY: 200 238.8163 694.0991 2941.3574 0.0000 -181555.8576 15586.9539 546.2582 0.0000 0.0000 -161548.3728 0.0000 -161548.3728 -161548.3728 0.0000 12582.6382 -6430.3951 534946.2959 12582.6382 -6430.3951
TCL: Setting parameter constraintScaling to 2.5
TCL: Minimizing for 100 steps
ETITLE: TS BOND ANGLE DIHED IMPRP ELECT VDW BOUNDARY MISC KINETIC TOTAL TEMP POTENTIAL TOTAL3 TEMPAVG PRESSURE GPRESSURE VOLUME PRESSAVG GPRESSAVG
ENERGY: 200 238.8163 694.0991 2941.3574 0.0000 -181555.8576 15586.9539 273.1291 0.0000 0.0000 -161821.5019 0.0000 -161821.5019 -161821.5019 0.0000 13229.5362 -25661.1664 534946.2959 13229.5362 -25661.1664
ENERGY: 220 251.1274 680.0331 2933.0279 0.0000 -182082.9959 15470.7285 338.6499 0.0000 0.0000 -162409.4291 0.0000 -162409.4291 -162409.4291 0.0000 12967.6311 -6100.9426 534946.2959 12967.6311 -6100.9426
ENERGY: 240 139.2537 665.8345 2928.5964 0.0000 -182462.6500 15494.1101 343.6274 0.0000 0.0000 -162891.2279 0.0000 -162891.2279 -162891.2279 0.0000 13034.2150 -6113.7068 534946.2959 13034.2150 -6113.7068
ENERGY: 260 164.8996 683.7486 2921.6291 0.0000 -183941.0484 15800.3316 385.4028 0.0000 0.0000 -163985.0368 0.0000 -163985.0368 -163985.0368 0.0000 13031.8958 -6252.3436 534946.2959 13031.8958 -6252.3436
ENERGY: 280 169.0693 700.9554 2917.6113 0.0000 -185424.3787 16229.6449 454.7943 0.0000 0.0000 -164952.3034 0.0000 -164952.3034 -164952.3034 0.0000 13143.9901 -6344.2715 534946.2959 13143.9901 -6344.2715
ENERGY: 300 126.6695 639.5677 2916.2559 0.0000 -186096.6141 16446.6889 481.3881 0.0000 0.0000 -165486.0440 0.0000 -165486.0440 -165486.0440 0.0000 13208.1630 -6349.0208 534946.2959 13208.1630 -6349.0208
TCL: Setting parameter constraintScaling to 1.25
TCL: Minimizing for 100 steps
ETITLE: TS BOND ANGLE DIHED IMPRP ELECT VDW BOUNDARY MISC KINETIC TOTAL TEMP POTENTIAL TOTAL3 TEMPAVG PRESSURE GPRESSURE VOLUME PRESSAVG GPRESSAVG
ENERGY: 300 126.6695 639.5677 2916.2559 0.0000 -186096.6141 16446.6889 240.6941 0.0000 0.0000 -165726.7380 0.0000 -165726.7380 -165726.7380 0.0000 13656.5248 -26359.2205 534946.2959 13656.5248 -26359.2205
ENERGY: 320 132.1143 624.5925 2911.1495 0.0000 -186667.8600 16580.6230 272.7719 0.0000 0.0000 -166146.6088 0.0000 -166146.6088 -166146.6088 0.0000 13630.0225 -5980.5401 534946.2959 13630.0225 -5980.5401
ENERGY: 340 151.1292 624.8286 2910.6796 0.0000 -187376.6171 16810.9846 296.0558 0.0000 0.0000 -166582.9393 0.0000 -166582.9393 -166582.9393 0.0000 13647.5333 -6017.7981 534946.2959 13647.5333 -6017.7981
ENERGY: 360 179.5482 678.0685 2908.4613 0.0000 -188931.9680 17341.9949 359.4575 0.0000 0.0000 -167464.4375 0.0000 -167464.4375 -167464.4375 0.0000 13867.7765 -6012.9984 534946.2959 13867.7765 -6012.9984
ENERGY: 380 179.7954 658.6954 2901.5642 0.0000 -189939.2518 17739.5953 383.4074 0.0000 0.0000 -168076.1940 0.0000 -168076.1940 -168076.1940 0.0000 13977.4717 -5992.5198 534946.2959 13977.4717 -5992.5198
ENERGY: 400 138.9775 633.7907 2899.6424 0.0000 -190501.1358 17942.2516 396.3436 0.0000 0.0000 -168490.1301 0.0000 -168490.1301 -168490.1301 0.0000 14126.5343 -5927.2719 534946.2959 14126.5343 -5927.2719
TCL: Setting parameter constraintScaling to 0.625
TCL: Minimizing for 100 steps
ETITLE: TS BOND ANGLE DIHED IMPRP ELECT VDW BOUNDARY MISC KINETIC TOTAL TEMP POTENTIAL TOTAL3 TEMPAVG PRESSURE GPRESSURE VOLUME PRESSAVG GPRESSAVG
ENERGY: 400 138.9775 633.7907 2899.6424 0.0000 -190501.1358 17942.2516 198.1718 0.0000 0.0000 -168688.3019 0.0000 -168688.3019 -168688.3019 0.0000 14425.4133 -26618.7444 534946.2959 14425.4133 -26618.7444
ENERGY: 420 149.0570 627.2827 2895.2081 0.0000 -190910.2883 18035.3904 219.9307 0.0000 0.0000 -168983.4194 0.0000 -168983.4194 -168983.4194 0.0000 14357.3214 -5725.8343 534946.2959 14357.3214 -5725.8343
ENERGY: 440 196.7528 639.2924 2901.4682 0.0000 -191499.7430 18223.1337 238.8562 0.0000 0.0000 -169300.2397 0.0000 -169300.2397 -169300.2397 0.0000 14335.2309 -5781.7988 534946.2959 14335.2309 -5781.7988
ENERGY: 460 140.0486 652.0726 2888.5540 0.0000 -192621.4558 18615.0582 271.2689 0.0000 0.0000 -170054.4534 0.0000 -170054.4534 -170054.4534 0.0000 14615.4922 -5686.8310 534946.2959 14615.4922 -5686.8310
ENERGY: 480 169.9850 640.0163 2888.7993 0.0000 -193075.7220 18794.9579 281.1114 0.0000 0.0000 -170300.8520 0.0000 -170300.8520 -170300.8520 0.0000 14599.8878 -5716.6276 534946.2959 14599.8878 -5716.6276
ENERGY: 500 154.2075 666.1446 2886.7467 0.0000 -193627.7247 19013.0025 286.3045 0.0000 0.0000 -170621.3190 0.0000 -170621.3190 -170621.3190 0.0000 14809.3890 -5606.1500 534946.2959 14809.3890 -5606.1500
TCL: Setting parameter constraintScaling to 0.3125
TCL: Minimizing for 100 steps
ETITLE: TS BOND ANGLE DIHED IMPRP ELECT VDW BOUNDARY MISC KINETIC TOTAL TEMP POTENTIAL TOTAL3 TEMPAVG PRESSURE GPRESSURE VOLUME PRESSAVG GPRESSAVG
ENERGY: 500 154.2075 666.1446 2886.7467 0.0000 -193627.7247 19013.0025 143.1523 0.0000 0.0000 -170764.4712 0.0000 -170764.4712 -170764.4712 0.0000 14996.8132 -26784.5992 534946.2959 14996.8132 -26784.5992
ENERGY: 520 163.3199 646.3838 2879.9521 0.0000 -194176.6450 19184.0652 165.0121 0.0000 0.0000 -171137.9118 0.0000 -171137.9118 -171137.9118 0.0000 14960.8528 -5494.6193 534946.2959 14960.8528 -5494.6193
ENERGY: 540 159.1315 661.9232 2877.9448 0.0000 -194466.5850 19303.2665 166.4468 0.0000 0.0000 -171297.8722 0.0000 -171297.8722 -171297.8722 0.0000 15052.4041 -5437.2362 534946.2959 15052.4041 -5437.2362
ENERGY: 560 151.7916 658.5134 2873.6925 0.0000 -196088.9004 19939.5059 207.7021 0.0000 0.0000 -172257.6950 0.0000 -172257.6950 -172257.6950 0.0000 15321.2642 -5358.6845 534946.2959 15321.2642 -5358.6845
ENERGY: 580 401.4564 700.1508 2863.6828 0.0000 -197173.5633 20400.9367 236.8546 0.0000 0.0000 -172570.4820 0.0000 -172570.4820 -172570.4820 0.0000 15448.5477 -5348.2587 534946.2959 15448.5477 -5348.2587
ENERGY: 600 175.5486 672.2075 2868.0207 0.0000 -197381.3288 20475.3817 231.8761 0.0000 0.0000 -172958.2941 0.0000 -172958.2941 -172958.2941 0.0000 15553.9731 -5269.7344 534946.2959 15553.9731 -5269.7344
TCL: Setting parameter constraintScaling to 0.15625
TCL: Minimizing for 100 steps
ETITLE: TS BOND ANGLE DIHED IMPRP ELECT VDW BOUNDARY MISC KINETIC TOTAL TEMP POTENTIAL TOTAL3 TEMPAVG PRESSURE GPRESSURE VOLUME PRESSAVG GPRESSAVG
ENERGY: 600 175.5486 672.2075 2868.0207 0.0000 -197381.3288 20475.3817 115.9381 0.0000 0.0000 -173074.2322 0.0000 -173074.2322 -173074.2322 0.0000 15679.0454 -26989.8262 534946.2959 15679.0454 -26989.8262
ENERGY: 620 184.1936 691.1158 2861.1857 0.0000 -197689.3926 20566.7105 124.0795 0.0000 0.0000 -173262.1076 0.0000 -173262.1076 -173262.1076 0.0000 15665.4696 -5184.0732 534946.2959 15665.4696 -5184.0732
ENERGY: 640 170.4117 666.3828 2859.0167 0.0000 -198042.3808 20681.4805 130.0203 0.0000 0.0000 -173535.0689 0.0000 -173535.0689 -173535.0689 0.0000 15700.4066 -5187.8539 534946.2959 15700.4066 -5187.8539
ENERGY: 660 151.0491 654.4522 2858.1723 0.0000 -198189.2902 20744.5020 127.3680 0.0000 0.0000 -173653.7467 0.0000 -173653.7467 -173653.7467 0.0000 15798.1458 -5119.5208 534946.2959 15798.1458 -5119.5208
ENERGY: 680 308.8126 706.7556 2857.4784 0.0000 -199238.7009 21115.4902 143.5211 0.0000 0.0000 -174106.6429 0.0000 -174106.6429 -174106.6429 0.0000 15875.1348 -5148.7672 534946.2959 15875.1348 -5148.7672
ENERGY: 700 186.5971 682.6924 2849.2479 0.0000 -199670.7785 21277.0367 151.5926 0.0000 0.0000 -174523.6119 0.0000 -174523.6119 -174523.6119 0.0000 15988.5028 -5098.6515 534946.2959 15988.5028 -5098.6515
TCL: Setting parameter constraintScaling to 0.078125
TCL: Minimizing for 100 steps
ETITLE: TS BOND ANGLE DIHED IMPRP ELECT VDW BOUNDARY MISC KINETIC TOTAL TEMP POTENTIAL TOTAL3 TEMPAVG PRESSURE GPRESSURE VOLUME PRESSAVG GPRESSAVG
ENERGY: 700 186.5971 682.6924 2849.2479 0.0000 -199670.7786 21277.0367 75.7963 0.0000 0.0000 -174599.4082 0.0000 -174599.4082 -174599.4082 0.0000 16062.3776 -27147.6782 534946.2959 16062.3776 -27147.6782
ENERGY: 720 160.3307 651.1238 2845.2180 0.0000 -199851.9737 21352.5906 75.6778 0.0000 0.0000 -174767.0327 0.0000 -174767.0327 -174767.0327 0.0000 16140.2873 -4972.1244 534946.2959 16140.2873 -4972.1244
ENERGY: 740 170.5547 651.2064 2840.0546 0.0000 -200613.2017 21627.4982 84.2951 0.0000 0.0000 -175239.5927 0.0000 -175239.5927 -175239.5927 0.0000 16212.0408 -4975.1983 534946.2959 16212.0408 -4975.1983
ENERGY: 760 181.7288 663.4968 2833.9407 0.0000 -200987.2074 21762.0277 88.1582 0.0000 0.0000 -175457.8553 0.0000 -175457.8553 -175457.8553 0.0000 16270.4891 -4959.8189 534946.2959 16270.4891 -4959.8189
ENERGY: 780 193.9491 663.8390 2842.6663 0.0000 -201314.3699 21899.8673 89.0680 0.0000 0.0000 -175624.9802 0.0000 -175624.9802 -175624.9802 0.0000 16341.0677 -4919.0926 534946.2959 16341.0677 -4919.0926
ENERGY: 800 172.6388 667.8885 2830.5750 0.0000 -201769.1655 22062.5369 93.5051 0.0000 0.0000 -175942.0212 0.0000 -175942.0212 -175942.0212 0.0000 16467.3384 -4872.6546 534946.2959 16467.3384 -4872.6546
TCL: Setting parameter constraintScaling to 0.0390625
TCL: Minimizing for 100 steps
ETITLE: TS BOND ANGLE DIHED IMPRP ELECT VDW BOUNDARY MISC KINETIC TOTAL TEMP POTENTIAL TOTAL3 TEMPAVG PRESSURE GPRESSURE VOLUME PRESSAVG GPRESSAVG
ENERGY: 800 172.6388 667.8885 2830.5750 0.0000 -201769.1655 22062.5369 46.7526 0.0000 0.0000 -175988.7738 0.0000 -175988.7738 -175988.7738 0.0000 16509.2737 -27209.3679 534946.2959 16509.2737 -27209.3679
ENERGY: 820 163.2333 658.3380 2832.3087 0.0000 -201989.8189 22146.6221 47.9475 0.0000 0.0000 -176141.3692 0.0000 -176141.3692 -176141.3692 0.0000 16563.3650 -4806.3946 534946.2959 16563.3650 -4806.3946
ENERGY: 840 160.0086 650.0894 2826.9109 0.0000 -202264.3469 22252.5176 49.5378 0.0000 0.0000 -176325.2826 0.0000 -176325.2826 -176325.2826 0.0000 16584.7575 -4806.2101 534946.2959 16584.7575 -4806.2101
ENERGY: 860 296.1642 721.6887 2825.8873 0.0000 -202952.7819 22531.0251 53.2278 0.0000 0.0000 -176524.7888 0.0000 -176524.7888 -176524.7888 0.0000 16694.8897 -4778.2839 534946.2959 16694.8897 -4778.2839
ENERGY: 880 194.4529 663.3979 2821.4950 0.0000 -203891.0605 22977.5054 57.8621 0.0000 0.0000 -177176.3472 0.0000 -177176.3472 -177176.3472 0.0000 16936.6190 -4636.0876 534946.2959 16936.6190 -4636.0876
ENERGY: 900 180.5169 667.2127 2817.1594 0.0000 -204562.5871 23319.8118 62.2955 0.0000 0.0000 -177515.5908 0.0000 -177515.5908 -177515.5908 0.0000 17124.0499 -4538.1473 534946.2959 17124.0499 -4538.1473
TCL: Setting parameter constraintScaling to 0.01953125
TCL: Minimizing for 100 steps
ETITLE: TS BOND ANGLE DIHED IMPRP ELECT VDW BOUNDARY MISC KINETIC TOTAL TEMP POTENTIAL TOTAL3 TEMPAVG PRESSURE GPRESSURE VOLUME PRESSAVG GPRESSAVG
ENERGY: 900 180.5169 667.2127 2817.1594 0.0000 -204562.5871 23319.8118 31.1477 0.0000 0.0000 -177546.7386 0.0000 -177546.7386 -177546.7386 0.0000 17149.1835 -27236.7917 534946.2959 17149.1835 -27236.7917
ENERGY: 920 165.1934 654.6198 2814.9250 0.0000 -204717.0429 23358.7752 31.5456 0.0000 0.0000 -177691.9840 0.0000 -177691.9840 -177691.9840 0.0000 17171.8095 -4510.7528 534946.2959 17171.8095 -4510.7528
ENERGY: 940 163.2214 656.4299 2812.1146 0.0000 -204903.1951 23425.2622 32.0695 0.0000 0.0000 -177814.0976 0.0000 -177814.0976 -177814.0976 0.0000 17206.7679 -4494.1961 534946.2959 17206.7679 -4494.1961
ENERGY: 960 180.7311 660.9850 2814.2875 0.0000 -205179.8697 23532.8429 32.9665 0.0000 0.0000 -177958.0567 0.0000 -177958.0567 -177958.0567 0.0000 17226.4123 -4498.5793 534946.2959 17226.4123 -4498.5793
ENERGY: 980 213.7456 666.0291 2809.4460 0.0000 -205792.1938 23799.2843 34.9730 0.0000 0.0000 -178268.7158 0.0000 -178268.7158 -178268.7158 0.0000 17380.2477 -4423.1745 534946.2959 17380.2477 -4423.1745
ENERGY: 1000 190.5525 675.1043 2810.3317 0.0000 -206023.9847 23929.0754 35.5648 0.0000 0.0000 -178383.3560 0.0000 -178383.3560 -178383.3560 0.0000 17472.1010 -4368.1098 534946.2959 17472.1010 -4368.1098
TCL: Setting parameter constraintScaling to 0
TCL: Minimizing for 5000 steps
ETITLE: TS BOND ANGLE DIHED IMPRP ELECT VDW BOUNDARY MISC KINETIC TOTAL TEMP POTENTIAL TOTAL3 TEMPAVG PRESSURE GPRESSURE VOLUME PRESSAVG GPRESSAVG
ENERGY: 1000 190.5525 675.1043 2810.3317 0.0000 -206023.9847 23929.0754 0.0000 0.0000 0.0000 -178418.9208 0.0000 -178418.9208 -178418.9208 0.0000 17499.5584 -27232.3527 534946.2959 17499.5584 -27232.3527
ENERGY: 2000 179.5496 671.1883 2801.0376 0.0000 -214910.9361 27811.1161 0.0000 0.0000 0.0000 -183448.0445 0.0000 -183448.0445 -183448.0445 0.0000 19537.2038 -3291.9950 534946.2959 19537.2038 -3291.9950
ENERGY: 3000 168.6949 672.7284 2797.2385 0.0000 -217464.8883 28936.9749 0.0000 0.0000 0.0000 -184889.2516 0.0000 -184889.2516 -184889.2516 0.0000 20150.0060 -2664.1246 534946.2959 20150.0060 -2664.1246
ENERGY: 4000 166.1440 665.7440 2789.3818 0.0000 -218770.2749 29422.6259 0.0000 0.0000 0.0000 -185726.3792 0.0000 -185726.3792 -185726.3792 0.0000 20392.3150 -2553.0423 534946.2959 20392.3150 -2553.0423
ENERGY: 5000 165.6728 663.3724 2785.2375 0.0000 -219466.2142 29693.3217 0.0000 0.0000 0.0000 -186158.6097 0.0000 -186158.6097 -186158.6097 0.0000 20532.8399 -2474.3672 534946.2959 20532.8399 -2474.3672
ENERGY: 6000 165.8913 667.5156 2782.9366 0.0000 -219939.3601 29834.5471 0.0000 0.0000 0.0000 -186488.4694 0.0000 -186488.4694 -186488.4694 0.0000 20602.1734 -2461.6584 534946.2959 20602.1734 -2461.6584
