Info: SIMULATION PARAMETERS:
Info: TIMESTEP               2
Info: NUMBER OF STEPS        0
Info: STEPS PER CYCLE        10
Info: PERIODIC CELL BASIS 1  72.449 0 0
Info: PERIODIC CELL BASIS 2  0 93.247 0
Info: PERIODIC CELL BASIS 3  0 0 79.185
Info: PERIODIC CELL CENTER   -0.248 -0.156 -0.047
Info: WRAPPING WATERS AROUND PERIODIC BOUNDARIES ON OUTPUT.
Info: WRAPPING ALL CLUSTERS AROUND PERIODIC BOUNDARIES ON OUTPUT.
Info: FIRST LDB TIMESTEP     50
Info: LAST LDB TIMESTEP     -1
Info: HOM BACKGROUND SCALING 1
Info: PME BACKGROUND SCALING 1
Info: MIN ATOMS PER PATCH    40
Info: INITIAL TEMPERATURE    0
Info: CENTER OF MASS MOVING INITIALLY? NO
Info: DIELECTRIC             1
Info: EXCLUDE                SCALED ONE-FOUR
Info: 1-4 ELECTROSTATICS SCALED BY 0.833333
Info: MODIFIED 1-4 VDW PARAMETERS WILL BE USED
Info: NO DCD TRAJECTORY OUTPUT
Info: NO EXTENDED SYSTEM TRAJECTORY OUTPUT
Info: NO VELOCITY DCD OUTPUT
Info: NO FORCE DCD OUTPUT
Info: OUTPUT FILENAME        ../replicas/rep85/equilibration/eq0
Info: NO RESTART FILE
Info: SWITCHING ACTIVE
Info: SWITCHING ON           10
Info: SWITCHING OFF          12
Info: PAIRLIST DISTANCE      13.5
Info: PAIRLIST SHRINK RATE   0.01
Info: PAIRLIST GROW RATE     0.01
Info: PAIRLIST TRIGGER       0.3
Info: PAIRLISTS PER CYCLE    2
Info: PAIRLISTS ENABLED
Info: MARGIN                 0
Info: HYDROGEN GROUP CUTOFF  2.5
Info: PATCH DIMENSION        16
Info: ENERGY OUTPUT STEPS    500
Info: CROSSTERM ENERGY INCLUDED IN DIHEDRAL
Info: TIMING OUTPUT STEPS    5000
Info: PRESSURE OUTPUT STEPS  500
Info: HARMONIC CONSTRAINTS ACTIVE
Info: HARMONIC CONS EXP      2
Info: HARMONIC CONS SCALING  10
Info: CONJUGATE GRADIENT MINIMIZATION ACTIVE
Info: LINE MINIMIZATION GOAL = 0.001
Info: BABY STEP SIZE = 0.01
Info: TINY STEP SIZE = 1e-06
Info: PARTICLE MESH EWALD (PME) ACTIVE
Info: PME TOLERANCE               1e-06
Info: PME EWALD COEFFICIENT       0.257952
Info: PME INTERPOLATION ORDER     4
Info: PME GRID DIMENSIONS         80 96 80
Info: PME MAXIMUM GRID SPACING    1
Info: FULL ELECTROSTATIC EVALUATION FREQUENCY      2
Info: USING VERLET I (r-RESPA) MTS SCHEME.
Info: C1 SPLITTING OF LONG RANGE ELECTROSTATICS
Info: PLACING ATOMS IN PATCHES BY HYDROGEN GROUPS
Info: RIGID BONDS TO HYDROGEN : ALL
Info:         ERROR TOLERANCE : 1e-05
Info:          MAX ITERATIONS : 100
Info: RIGID WATER USING SETTLE ALGORITHM
Info: RANDOM NUMBER SEED     1503690980
Info: USE HYDROGEN BONDS?    NO
Info: Using AMBER format force field!
Info: AMBER PARM FILE        ../build/complex.top
Info: COORDINATE PDB         ../build/complex.pdb
Info: Exclusions in PARM file will be ignored!
Info: SCNB (VDW SCALING)     2
Info: USING ARITHMETIC MEAN TO COMBINE L-J SIGMA PARAMETERS
Info: SUMMARY OF PARAMETERS:
Info: 71 BONDS
Info: 145 ANGLES
Info: 76 DIHEDRAL
Info: 0 IMPROPER
Info: 0 CROSSTERM
Info: 0 VDW
Info: 190 VDW_PAIRS
Info: 0 NBTHOLE_PAIRS
Info: STRUCTURE SUMMARY:
Info: 49394 ATOMS
Info: 49448 BONDS
Info: 8698 ANGLES
Info: 18780 DIHEDRALS
Info: 0 IMPROPERS
Info: 0 CROSSTERMS
Info: 0 EXCLUSIONS
Info: 2336 CONSTRAINTS
Info: 47058 RIGID BONDS
Info: 101124 DEGREES OF FREEDOM
Info: 17225 HYDROGEN GROUPS
Info: 4 ATOMS IN LARGEST HYDROGEN GROUP
Info: 17225 MIGRATION GROUPS
Info: 4 ATOMS IN LARGEST MIGRATION GROUP
Info: TOTAL MASS = 301478 amu
Info: TOTAL CHARGE = 1.00115e-05 e
Info: MASS DENSITY = 0.935846 g/cm^3
Info: ATOM DENSITY = 0.0923345 atoms/A^3
Info: ADDED 70656 IMPLICIT EXCLUSIONS
Info: NONBONDED TABLE R-SQUARED SPACING: 0.0625
Info: NONBONDED TABLE SIZE: 769 POINTS
Info: REMOVING COM VELOCITY 0 0 0
TCL: Minimizing for 100 steps
ETITLE: TS BOND ANGLE DIHED IMPRP ELECT VDW BOUNDARY MISC KINETIC TOTAL TEMP POTENTIAL TOTAL3 TEMPAVG PRESSURE GPRESSURE VOLUME PRESSAVG GPRESSAVG
ENERGY: 0 155.4176 1012.2698 2855.7272 0.0000 -154496.7911 207729.2052 0.0468 0.0000 0.0000 57255.8755 0.0000 57255.8755 57255.8755 0.0000 116350.2532 86546.1670 534946.2959 116350.2532 86546.1670
ENERGY: 20 304.7553 935.7912 2893.4663 0.0000 -158672.9408 17936.6593 143.9454 0.0000 0.0000 -136458.3232 0.0000 -136458.3232 -136458.3232 0.0000 16523.9386 -239.4560 534946.2959 16523.9386 -239.4560
ENERGY: 40 198.7470 799.5731 2896.9273 0.0000 -162811.4536 16417.9536 221.3031 0.0000 0.0000 -142276.9495 0.0000 -142276.9495 -142276.9495 0.0000 15011.2701 -2135.4700 534946.2959 15011.2701 -2135.4700
ENERGY: 60 130.5280 715.3439 2898.2166 0.0000 -167496.1606 15446.7533 315.2797 0.0000 0.0000 -147990.0391 0.0000 -147990.0391 -147990.0391 0.0000 13793.8829 -3799.3998 534946.2959 13793.8829 -3799.3998
ENERGY: 80 431.2718 765.6304 2904.3788 0.0000 -169937.5397 15121.1512 372.0124 0.0000 0.0000 -150343.0950 0.0000 -150343.0950 -150343.0950 0.0000 13270.3281 -4577.2484 534946.2959 13270.3281 -4577.2484
ENERGY: 100 119.3833 710.0597 2905.2592 0.0000 -171259.7115 14991.7871 387.3613 0.0000 0.0000 -152145.8608 0.0000 -152145.8608 -152145.8608 0.0000 13056.2654 -4908.1719 534946.2959 13056.2654 -4908.1719
TCL: Setting parameter constraintScaling to 5.0
TCL: Minimizing for 100 steps
ETITLE: TS BOND ANGLE DIHED IMPRP ELECT VDW BOUNDARY MISC KINETIC TOTAL TEMP POTENTIAL TOTAL3 TEMPAVG PRESSURE GPRESSURE VOLUME PRESSAVG GPRESSAVG
ENERGY: 100 119.3833 710.0597 2905.2592 0.0000 -171259.7115 14991.7871 193.6807 0.0000 0.0000 -152339.5414 0.0000 -152339.5414 -152339.5414 0.0000 13672.7716 -23021.8180 534946.2959 13672.7716 -23021.8180
ENERGY: 120 166.4749 692.2113 2910.8256 0.0000 -172914.8014 14833.3530 281.9284 0.0000 0.0000 -154030.0081 0.0000 -154030.0081 -154030.0081 0.0000 13225.2854 -4913.0133 534946.2959 13225.2854 -4913.0133
ENERGY: 140 225.2098 696.9140 2912.9620 0.0000 -174149.8721 14732.6592 321.2015 0.0000 0.0000 -155260.9256 0.0000 -155260.9256 -155260.9256 0.0000 12997.5578 -5265.7720 534946.2959 12997.5578 -5265.7720
ENERGY: 160 270.6371 684.2816 2923.3174 0.0000 -176287.4067 14758.2717 383.3627 0.0000 0.0000 -157267.5361 0.0000 -157267.5361 -157267.5361 0.0000 12739.1876 -5746.1136 534946.2959 12739.1876 -5746.1136
ENERGY: 180 172.5246 724.9616 2929.2196 0.0000 -179194.7315 15054.5367 478.4473 0.0000 0.0000 -159835.0418 0.0000 -159835.0418 -159835.0418 0.0000 12525.2762 -6233.9776 534946.2959 12525.2762 -6233.9776
ENERGY: 200 240.0439 694.0720 2941.4229 0.0000 -181559.9291 15587.8659 546.3624 0.0000 0.0000 -161550.1619 0.0000 -161550.1619 -161550.1619 0.0000 12582.7041 -6431.2236 534946.2959 12582.7041 -6431.2236
TCL: Setting parameter constraintScaling to 2.5
TCL: Minimizing for 100 steps
ETITLE: TS BOND ANGLE DIHED IMPRP ELECT VDW BOUNDARY MISC KINETIC TOTAL TEMP POTENTIAL TOTAL3 TEMPAVG PRESSURE GPRESSURE VOLUME PRESSAVG GPRESSAVG
ENERGY: 200 240.0439 694.0720 2941.4229 0.0000 -181559.9291 15587.8659 273.1812 0.0000 0.0000 -161823.3431 0.0000 -161823.3431 -161823.3431 0.0000 13229.7297 -25662.4906 534946.2959 13229.7297 -25662.4906
ENERGY: 220 251.1470 678.7838 2933.0008 0.0000 -182080.6152 15472.7468 337.7432 0.0000 0.0000 -162407.1936 0.0000 -162407.1936 -162407.1936 0.0000 12971.2176 -6097.7236 534946.2959 12971.2176 -6097.7236
ENERGY: 240 139.9057 665.7271 2928.6666 0.0000 -182460.5011 15495.3601 343.1300 0.0000 0.0000 -162887.7116 0.0000 -162887.7116 -162887.7116 0.0000 13035.4980 -6112.3660 534946.2959 13035.4980 -6112.3660
ENERGY: 260 232.7173 706.4238 2922.3909 0.0000 -183765.4215 15760.0875 380.6241 0.0000 0.0000 -163763.1779 0.0000 -163763.1779 -163763.1779 0.0000 13013.8414 -6248.1607 534946.2959 13013.8414 -6248.1607
ENERGY: 280 128.0902 697.3771 2917.4166 0.0000 -185319.1623 16189.9379 450.2738 0.0000 0.0000 -164936.0667 0.0000 -164936.0667 -164936.0667 0.0000 13134.5985 -6340.2926 534946.2959 13134.5985 -6340.2926
ENERGY: 300 118.1738 637.5543 2916.4955 0.0000 -186077.1093 16440.8887 483.6334 0.0000 0.0000 -165480.3635 0.0000 -165480.3635 -165480.3635 0.0000 13202.9113 -6351.1715 534946.2959 13202.9113 -6351.1715
TCL: Setting parameter constraintScaling to 1.25
TCL: Minimizing for 100 steps
ETITLE: TS BOND ANGLE DIHED IMPRP ELECT VDW BOUNDARY MISC KINETIC TOTAL TEMP POTENTIAL TOTAL3 TEMPAVG PRESSURE GPRESSURE VOLUME PRESSAVG GPRESSAVG
ENERGY: 300 118.1738 637.5543 2916.4955 0.0000 -186077.1093 16440.8887 241.8167 0.0000 0.0000 -165722.1802 0.0000 -165722.1802 -165722.1802 0.0000 13652.5112 -26359.0533 534946.2959 13652.5112 -26359.0533
ENERGY: 320 139.3611 626.8435 2910.3333 0.0000 -186768.5221 16615.6569 273.8059 0.0000 0.0000 -166202.5215 0.0000 -166202.5215 -166202.5215 0.0000 13649.1698 -5979.3456 534946.2959 13649.1698 -5979.3456
ENERGY: 340 180.6350 626.3603 2909.4139 0.0000 -187492.0000 16848.4272 301.8273 0.0000 0.0000 -166625.3362 0.0000 -166625.3362 -166625.3362 0.0000 13680.5450 -6013.0061 534946.2959 13680.5450 -6013.0061
ENERGY: 360 464.7787 665.2923 2904.7629 0.0000 -189016.6993 17374.7653 353.8653 0.0000 0.0000 -167253.2348 0.0000 -167253.2348 -167253.2348 0.0000 13745.1404 -6094.8746 534946.2959 13745.1404 -6094.8746
ENERGY: 380 201.2890 703.1115 2904.0281 0.0000 -189886.1763 17667.1103 363.3075 0.0000 0.0000 -168047.3300 0.0000 -168047.3300 -168047.3300 0.0000 14057.0687 -5945.3234 534946.2959 14057.0687 -5945.3234
ENERGY: 400 140.9459 618.3137 2899.9317 0.0000 -190115.5962 17741.0062 369.6728 0.0000 0.0000 -168345.7259 0.0000 -168345.7259 -168345.7259 0.0000 14001.7519 -5993.5501 534946.2959 14001.7519 -5993.5501
TCL: Setting parameter constraintScaling to 0.625
TCL: Minimizing for 100 steps
ETITLE: TS BOND ANGLE DIHED IMPRP ELECT VDW BOUNDARY MISC KINETIC TOTAL TEMP POTENTIAL TOTAL3 TEMPAVG PRESSURE GPRESSURE VOLUME PRESSAVG GPRESSAVG
ENERGY: 400 140.9459 618.3137 2899.9317 0.0000 -190115.5962 17741.0062 184.8364 0.0000 0.0000 -168530.5623 0.0000 -168530.5623 -168530.5623 0.0000 14290.5941 -26669.3955 534946.2959 14290.5941 -26669.3955
ENERGY: 420 165.2289 693.2536 2899.7016 0.0000 -190866.9967 17966.3653 224.9628 0.0000 0.0000 -168917.4845 0.0000 -168917.4845 -168917.4845 0.0000 14372.8154 -5736.0517 534946.2959 14372.8154 -5736.0517
ENERGY: 440 173.4804 647.6824 2892.4984 0.0000 -191279.2973 18119.7177 231.7757 0.0000 0.0000 -169214.1427 0.0000 -169214.1427 -169214.1427 0.0000 14354.7214 -5760.9761 534946.2959 14354.7214 -5760.9761
ENERGY: 460 260.7783 681.1972 2892.6700 0.0000 -192115.6074 18422.2041 256.7695 0.0000 0.0000 -169601.9883 0.0000 -169601.9883 -169601.9883 0.0000 14378.2973 -5805.4614 534946.2959 14378.2973 -5805.4614
ENERGY: 480 446.2425 836.2270 2911.3212 0.0000 -192859.0579 18685.1657 289.8727 0.0000 0.0000 -169690.2288 0.0000 -169690.2288 -169690.2288 0.0000 14600.6981 -5763.7172 534946.2959 14600.6981 -5763.7172
ENERGY: 500 270.2488 715.2120 2879.2560 0.0000 -193889.6917 19105.0190 304.9097 0.0000 0.0000 -170615.0463 0.0000 -170615.0463 -170615.0463 0.0000 14754.8179 -5654.9465 534946.2959 14754.8179 -5654.9465
TCL: Setting parameter constraintScaling to 0.3125
TCL: Minimizing for 100 steps
ETITLE: TS BOND ANGLE DIHED IMPRP ELECT VDW BOUNDARY MISC KINETIC TOTAL TEMP POTENTIAL TOTAL3 TEMPAVG PRESSURE GPRESSURE VOLUME PRESSAVG GPRESSAVG
ENERGY: 500 270.2488 715.2120 2879.2560 0.0000 -193889.6917 19105.0190 152.4549 0.0000 0.0000 -170767.5011 0.0000 -170767.5011 -170767.5011 0.0000 14949.5078 -26896.2932 534946.2959 14949.5078 -26896.2932
ENERGY: 520 155.0891 641.7230 2884.4771 0.0000 -194151.1520 19189.6098 157.3516 0.0000 0.0000 -171122.9014 0.0000 -171122.9014 -171122.9014 0.0000 14982.1433 -5461.2447 534946.2959 14982.1433 -5461.2447
ENERGY: 540 149.5311 666.6598 2885.2252 0.0000 -194808.3026 19447.2297 170.9533 0.0000 0.0000 -171488.7036 0.0000 -171488.7036 -171488.7036 0.0000 15136.3004 -5393.4704 534946.2959 15136.3004 -5393.4704
ENERGY: 560 167.7309 659.1934 2877.6706 0.0000 -195063.6928 19513.2911 183.8560 0.0000 0.0000 -171661.9509 0.0000 -171661.9509 -171661.9509 0.0000 15068.7775 -5476.2922 534946.2959 15068.7775 -5476.2922
ENERGY: 580 177.3222 713.7175 2878.5108 0.0000 -195748.1454 19778.7283 200.6668 0.0000 0.0000 -171999.1997 0.0000 -171999.1997 -171999.1997 0.0000 15192.6883 -5433.5855 534946.2959 15192.6883 -5433.5855
ENERGY: 600 158.9815 652.5681 2868.6218 0.0000 -197252.3151 20425.3499 223.8672 0.0000 0.0000 -172922.9265 0.0000 -172922.9265 -172922.9265 0.0000 15507.1376 -5287.6778 534946.2959 15507.1376 -5287.6778
TCL: Setting parameter constraintScaling to 0.15625
TCL: Minimizing for 100 steps
ETITLE: TS BOND ANGLE DIHED IMPRP ELECT VDW BOUNDARY MISC KINETIC TOTAL TEMP POTENTIAL TOTAL3 TEMPAVG PRESSURE GPRESSURE VOLUME PRESSAVG GPRESSAVG
ENERGY: 600 158.9815 652.5681 2868.6218 0.0000 -197252.3151 20425.3499 111.9336 0.0000 0.0000 -173034.8602 0.0000 -173034.8602 -173034.8602 0.0000 15630.3007 -27014.0330 534946.2959 15630.3007 -27014.0330
ENERGY: 620 261.2162 735.6380 2882.2069 0.0000 -197794.2310 20603.6902 125.6343 0.0000 0.0000 -173185.8453 0.0000 -173185.8453 -173185.8453 0.0000 15559.6480 -5271.7602 534946.2959 15559.6480 -5271.7602
ENERGY: 640 183.9577 691.5806 2857.8532 0.0000 -198328.5000 20809.2776 132.8039 0.0000 0.0000 -173653.0270 0.0000 -173653.0270 -173653.0270 0.0000 15813.7306 -5124.8266 534946.2959 15813.7306 -5124.8266
ENERGY: 660 158.9368 662.3203 2854.9902 0.0000 -198717.4518 20944.6651 139.4423 0.0000 0.0000 -173957.0971 0.0000 -173957.0971 -173957.0971 0.0000 15844.7819 -5128.0136 534946.2959 15844.7819 -5128.0136
ENERGY: 680 177.1548 671.0580 2856.9135 0.0000 -198991.4145 21018.4668 141.8664 0.0000 0.0000 -174125.9550 0.0000 -174125.9550 -174125.9550 0.0000 15824.5482 -5166.9160 534946.2959 15824.5482 -5166.9160
ENERGY: 700 195.0793 710.5078 2859.9384 0.0000 -199713.9013 21353.9783 143.6505 0.0000 0.0000 -174450.7471 0.0000 -174450.7471 -174450.7471 0.0000 16117.8078 -4996.4256 534946.2959 16117.8078 -4996.4256
TCL: Setting parameter constraintScaling to 0.078125
TCL: Minimizing for 100 steps
ETITLE: TS BOND ANGLE DIHED IMPRP ELECT VDW BOUNDARY MISC KINETIC TOTAL TEMP POTENTIAL TOTAL3 TEMPAVG PRESSURE GPRESSURE VOLUME PRESSAVG GPRESSAVG
ENERGY: 700 195.0793 710.5078 2859.9384 0.0000 -199713.9013 21353.9783 71.8252 0.0000 0.0000 -174522.5723 0.0000 -174522.5723 -174522.5723 0.0000 16190.6148 -27040.2266 534946.2959 16190.6148 -27040.2266
ENERGY: 720 161.7751 651.3963 2845.5594 0.0000 -199944.4046 21371.4431 75.1768 0.0000 0.0000 -174839.0539 0.0000 -174839.0539 -174839.0539 0.0000 16145.7562 -4979.4648 534946.2959 16145.7562 -4979.4648
ENERGY: 740 194.4054 678.5250 2844.4422 0.0000 -200420.4107 21565.7647 83.0338 0.0000 0.0000 -175054.2395 0.0000 -175054.2395 -175054.2395 0.0000 16139.2332 -5020.6542 534946.2959 16139.2332 -5020.6542
ENERGY: 760 160.7765 668.5671 2840.2602 0.0000 -200545.2558 21580.4488 83.3486 0.0000 0.0000 -175211.8546 0.0000 -175211.8546 -175211.8546 0.0000 16224.6957 -4966.8288 534946.2959 16224.6957 -4966.8288
ENERGY: 780 180.4821 679.2384 2842.4509 0.0000 -201138.4378 21823.9178 86.3703 0.0000 0.0000 -175525.9783 0.0000 -175525.9783 -175525.9783 0.0000 16354.4924 -4906.0901 534946.2959 16354.4924 -4906.0901
ENERGY: 800 174.8831 667.4165 2838.5149 0.0000 -201759.8099 22076.1330 91.3920 0.0000 0.0000 -175911.4704 0.0000 -175911.4704 -175911.4704 0.0000 16504.2035 -4842.3431 534946.2959 16504.2035 -4842.3431
TCL: Setting parameter constraintScaling to 0.0390625
TCL: Minimizing for 100 steps
ETITLE: TS BOND ANGLE DIHED IMPRP ELECT VDW BOUNDARY MISC KINETIC TOTAL TEMP POTENTIAL TOTAL3 TEMPAVG PRESSURE GPRESSURE VOLUME PRESSAVG GPRESSAVG
ENERGY: 800 174.8831 667.4165 2838.5149 0.0000 -201759.8099 22076.1330 45.6960 0.0000 0.0000 -175957.1664 0.0000 -175957.1664 -175957.1664 0.0000 16545.8386 -27174.2970 534946.2959 16545.8386 -27174.2970
ENERGY: 820 165.4613 652.2314 2829.2002 0.0000 -201946.8321 22134.6738 47.6569 0.0000 0.0000 -176117.6085 0.0000 -176117.6085 -176117.6085 0.0000 16512.2099 -4837.7128 534946.2959 16512.2099 -4837.7128
ENERGY: 840 184.3115 671.8077 2828.8084 0.0000 -202361.9986 22312.1434 51.0735 0.0000 0.0000 -176313.8542 0.0000 -176313.8542 -176313.8542 0.0000 16541.7723 -4847.1137 534946.2959 16541.7723 -4847.1137
ENERGY: 860 296.3638 668.7447 2829.2776 0.0000 -202790.0992 22475.4376 51.5539 0.0000 0.0000 -176468.7217 0.0000 -176468.7217 -176468.7217 0.0000 16568.9093 -4851.1704 534946.2959 16568.9093 -4851.1704
ENERGY: 880 175.4040 674.9018 2835.6811 0.0000 -203228.8468 22680.9796 52.8742 0.0000 0.0000 -176809.0062 0.0000 -176809.0062 -176809.0062 0.0000 16833.3828 -4681.6790 534946.2959 16833.3828 -4681.6790
ENERGY: 900 184.6068 669.8710 2820.6765 0.0000 -204221.7786 23141.2555 58.5681 0.0000 0.0000 -177346.8006 0.0000 -177346.8006 -177346.8006 0.0000 17075.2589 -4554.3404 534946.2959 17075.2589 -4554.3404
TCL: Setting parameter constraintScaling to 0.01953125
TCL: Minimizing for 100 steps
ETITLE: TS BOND ANGLE DIHED IMPRP ELECT VDW BOUNDARY MISC KINETIC TOTAL TEMP POTENTIAL TOTAL3 TEMPAVG PRESSURE GPRESSURE VOLUME PRESSAVG GPRESSAVG
ENERGY: 900 184.6068 669.8710 2820.6765 0.0000 -204221.7786 23141.2555 29.2841 0.0000 0.0000 -177376.0846 0.0000 -177376.0846 -177376.0846 0.0000 17099.6584 -27212.1037 534946.2959 17099.6584 -27212.1037
ENERGY: 920 243.9860 677.9644 2818.8395 0.0000 -204335.9959 23154.8232 29.9836 0.0000 0.0000 -177410.3993 0.0000 -177410.3993 -177410.3993 0.0000 17059.1026 -4571.2036 534946.2959 17059.1026 -4571.2036
ENERGY: 940 210.3844 697.5556 2816.7727 0.0000 -204628.4065 23270.6275 31.3733 0.0000 0.0000 -177601.6929 0.0000 -177601.6929 -177601.6929 0.0000 17155.5660 -4538.8617 534946.2959 17155.5660 -4538.8617
ENERGY: 960 174.8297 661.4118 2816.0092 0.0000 -204758.3353 23320.3231 31.4773 0.0000 0.0000 -177754.2842 0.0000 -177754.2842 -177754.2842 0.0000 17100.2661 -4570.1320 534946.2959 17100.2661 -4570.1320
ENERGY: 980 183.9075 666.1580 2817.9132 0.0000 -205411.3475 23641.4513 32.9006 0.0000 0.0000 -178069.0168 0.0000 -178069.0168 -178069.0168 0.0000 17322.9195 -4437.5958 534946.2959 17322.9195 -4437.5958
ENERGY: 1000 162.5750 668.8255 2814.8240 0.0000 -206021.0600 23924.5493 35.3135 0.0000 0.0000 -178414.9726 0.0000 -178414.9726 -178414.9726 0.0000 17484.9833 -4351.3208 534946.2959 17484.9833 -4351.3208
TCL: Setting parameter constraintScaling to 0
TCL: Minimizing for 5000 steps
ETITLE: TS BOND ANGLE DIHED IMPRP ELECT VDW BOUNDARY MISC KINETIC TOTAL TEMP POTENTIAL TOTAL3 TEMPAVG PRESSURE GPRESSURE VOLUME PRESSAVG GPRESSAVG
ENERGY: 1000 162.5750 668.8255 2814.8240 0.0000 -206021.0600 23924.5493 0.0000 0.0000 0.0000 -178450.2861 0.0000 -178450.2861 -178450.2861 0.0000 17512.4893 -27222.3053 534946.2959 17512.4893 -27222.3053
ENERGY: 2000 224.0418 693.7276 2805.4778 0.0000 -215023.3274 27936.2632 0.0000 0.0000 0.0000 -183363.8169 0.0000 -183363.8169 -183363.8169 0.0000 19622.1027 -3221.3708 534946.2959 19622.1027 -3221.3708
ENERGY: 3000 166.3332 665.7211 2794.4365 0.0000 -217620.8670 28955.3691 0.0000 0.0000 0.0000 -185039.0071 0.0000 -185039.0071 -185039.0071 0.0000 20151.8983 -2686.4060 534946.2959 20151.8983 -2686.4060
ENERGY: 4000 167.2891 665.9188 2789.6355 0.0000 -218774.0231 29423.8425 0.0000 0.0000 0.0000 -185727.3371 0.0000 -185727.3371 -185727.3371 0.0000 20387.6938 -2573.2885 534946.2959 20387.6938 -2573.2885
ENERGY: 5000 167.2512 663.7107 2783.9023 0.0000 -219458.5467 29681.5667 0.0000 0.0000 0.0000 -186162.1158 0.0000 -186162.1158 -186162.1158 0.0000 20515.9806 -2512.6759 534946.2959 20515.9806 -2512.6759
ENERGY: 6000 166.3542 663.0668 2783.0841 0.0000 -219860.0479 29842.8229 0.0000 0.0000 0.0000 -186404.7199 0.0000 -186404.7199 -186404.7199 0.0000 20606.7460 -2451.8404 534946.2959 20606.7460 -2451.8404
