Info: SIMULATION PARAMETERS:
Info: TIMESTEP               2
Info: NUMBER OF STEPS        0
Info: STEPS PER CYCLE        10
Info: PERIODIC CELL BASIS 1  72.449 0 0
Info: PERIODIC CELL BASIS 2  0 93.247 0
Info: PERIODIC CELL BASIS 3  0 0 79.185
Info: PERIODIC CELL CENTER   -0.248 -0.156 -0.047
Info: WRAPPING WATERS AROUND PERIODIC BOUNDARIES ON OUTPUT.
Info: WRAPPING ALL CLUSTERS AROUND PERIODIC BOUNDARIES ON OUTPUT.
Info: FIRST LDB TIMESTEP     50
Info: LAST LDB TIMESTEP     -1
Info: HOM BACKGROUND SCALING 1
Info: PME BACKGROUND SCALING 1
Info: MIN ATOMS PER PATCH    40
Info: INITIAL TEMPERATURE    0
Info: CENTER OF MASS MOVING INITIALLY? NO
Info: DIELECTRIC             1
Info: EXCLUDE                SCALED ONE-FOUR
Info: 1-4 ELECTROSTATICS SCALED BY 0.833333
Info: MODIFIED 1-4 VDW PARAMETERS WILL BE USED
Info: NO DCD TRAJECTORY OUTPUT
Info: NO EXTENDED SYSTEM TRAJECTORY OUTPUT
Info: NO VELOCITY DCD OUTPUT
Info: NO FORCE DCD OUTPUT
Info: OUTPUT FILENAME        ../replicas/rep101/equilibration/eq0
Info: NO RESTART FILE
Info: SWITCHING ACTIVE
Info: SWITCHING ON           10
Info: SWITCHING OFF          12
Info: PAIRLIST DISTANCE      13.5
Info: PAIRLIST SHRINK RATE   0.01
Info: PAIRLIST GROW RATE     0.01
Info: PAIRLIST TRIGGER       0.3
Info: PAIRLISTS PER CYCLE    2
Info: PAIRLISTS ENABLED
Info: MARGIN                 0
Info: HYDROGEN GROUP CUTOFF  2.5
Info: PATCH DIMENSION        16
Info: ENERGY OUTPUT STEPS    500
Info: CROSSTERM ENERGY INCLUDED IN DIHEDRAL
Info: TIMING OUTPUT STEPS    5000
Info: PRESSURE OUTPUT STEPS  500
Info: HARMONIC CONSTRAINTS ACTIVE
Info: HARMONIC CONS EXP      2
Info: HARMONIC CONS SCALING  10
Info: CONJUGATE GRADIENT MINIMIZATION ACTIVE
Info: LINE MINIMIZATION GOAL = 0.001
Info: BABY STEP SIZE = 0.01
Info: TINY STEP SIZE = 1e-06
Info: PARTICLE MESH EWALD (PME) ACTIVE
Info: PME TOLERANCE               1e-06
Info: PME EWALD COEFFICIENT       0.257952
Info: PME INTERPOLATION ORDER     4
Info: PME GRID DIMENSIONS         80 96 80
Info: PME MAXIMUM GRID SPACING    1
Info: FULL ELECTROSTATIC EVALUATION FREQUENCY      2
Info: USING VERLET I (r-RESPA) MTS SCHEME.
Info: C1 SPLITTING OF LONG RANGE ELECTROSTATICS
Info: PLACING ATOMS IN PATCHES BY HYDROGEN GROUPS
Info: RIGID BONDS TO HYDROGEN : ALL
Info:         ERROR TOLERANCE : 1e-05
Info:          MAX ITERATIONS : 100
Info: RIGID WATER USING SETTLE ALGORITHM
Info: RANDOM NUMBER SEED     1503693040
Info: USE HYDROGEN BONDS?    NO
Info: Using AMBER format force field!
Info: AMBER PARM FILE        ../build/complex.top
Info: COORDINATE PDB         ../build/complex.pdb
Info: Exclusions in PARM file will be ignored!
Info: SCNB (VDW SCALING)     2
Info: USING ARITHMETIC MEAN TO COMBINE L-J SIGMA PARAMETERS
Info: SUMMARY OF PARAMETERS:
Info: 71 BONDS
Info: 145 ANGLES
Info: 76 DIHEDRAL
Info: 0 IMPROPER
Info: 0 CROSSTERM
Info: 0 VDW
Info: 190 VDW_PAIRS
Info: 0 NBTHOLE_PAIRS
Info: STRUCTURE SUMMARY:
Info: 49394 ATOMS
Info: 49448 BONDS
Info: 8698 ANGLES
Info: 18780 DIHEDRALS
Info: 0 IMPROPERS
Info: 0 CROSSTERMS
Info: 0 EXCLUSIONS
Info: 2336 CONSTRAINTS
Info: 47058 RIGID BONDS
Info: 101124 DEGREES OF FREEDOM
Info: 17225 HYDROGEN GROUPS
Info: 4 ATOMS IN LARGEST HYDROGEN GROUP
Info: 17225 MIGRATION GROUPS
Info: 4 ATOMS IN LARGEST MIGRATION GROUP
Info: TOTAL MASS = 301478 amu
Info: TOTAL CHARGE = 1.00115e-05 e
Info: MASS DENSITY = 0.935846 g/cm^3
Info: ATOM DENSITY = 0.0923345 atoms/A^3
Info: ADDED 70656 IMPLICIT EXCLUSIONS
Info: NONBONDED TABLE R-SQUARED SPACING: 0.0625
Info: NONBONDED TABLE SIZE: 769 POINTS
Info: REMOVING COM VELOCITY 0 0 0
TCL: Minimizing for 100 steps
ETITLE: TS BOND ANGLE DIHED IMPRP ELECT VDW BOUNDARY MISC KINETIC TOTAL TEMP POTENTIAL TOTAL3 TEMPAVG PRESSURE GPRESSURE VOLUME PRESSAVG GPRESSAVG
ENERGY: 0 155.4176 1012.2698 2855.7272 0.0000 -154496.7913 207729.2052 0.0468 0.0000 0.0000 57255.8753 0.0000 57255.8753 57255.8753 0.0000 116350.2532 86546.1670 534946.2959 116350.2532 86546.1670
ENERGY: 20 304.7533 935.7910 2893.4663 0.0000 -158672.9393 17936.6601 143.9453 0.0000 0.0000 -136458.3233 0.0000 -136458.3233 -136458.3233 0.0000 16523.9394 -239.4550 534946.2959 16523.9394 -239.4550
ENERGY: 40 198.7417 799.5723 2896.9273 0.0000 -162811.4543 16417.9533 221.3029 0.0000 0.0000 -142276.9567 0.0000 -142276.9567 -142276.9567 0.0000 15011.2700 -2135.4702 534946.2959 15011.2700 -2135.4702
ENERGY: 60 130.5285 715.3440 2898.2165 0.0000 -167496.1563 15446.7541 315.2796 0.0000 0.0000 -147990.0336 0.0000 -147990.0336 -147990.0336 0.0000 13793.8840 -3799.3983 534946.2959 13793.8840 -3799.3983
ENERGY: 80 431.2755 765.6313 2904.3783 0.0000 -169937.5193 15121.1536 372.0119 0.0000 0.0000 -150343.0687 0.0000 -150343.0687 -150343.0687 0.0000 13270.3334 -4577.2420 534946.2959 13270.3334 -4577.2420
ENERGY: 100 119.3900 710.0605 2905.2589 0.0000 -171259.7213 14991.7860 387.3613 0.0000 0.0000 -152145.8646 0.0000 -152145.8646 -152145.8646 0.0000 13056.2639 -4908.1755 534946.2959 13056.2639 -4908.1755
TCL: Setting parameter constraintScaling to 5.0
TCL: Minimizing for 100 steps
ETITLE: TS BOND ANGLE DIHED IMPRP ELECT VDW BOUNDARY MISC KINETIC TOTAL TEMP POTENTIAL TOTAL3 TEMPAVG PRESSURE GPRESSURE VOLUME PRESSAVG GPRESSAVG
ENERGY: 100 119.3900 710.0605 2905.2589 0.0000 -171259.7213 14991.7860 193.6807 0.0000 0.0000 -152339.5452 0.0000 -152339.5452 -152339.5452 0.0000 13672.7701 -23021.8215 534946.2959 13672.7701 -23021.8215
ENERGY: 120 166.4502 692.2081 2910.8260 0.0000 -172914.7703 14833.3505 281.9272 0.0000 0.0000 -154030.0083 0.0000 -154030.0083 -154030.0083 0.0000 13225.2910 -4913.0022 534946.2959 13225.2910 -4913.0022
ENERGY: 140 225.1459 696.9103 2912.9610 0.0000 -174149.5651 14732.6701 321.1883 0.0000 0.0000 -155260.6895 0.0000 -155260.6895 -155260.6895 0.0000 12997.6158 -5265.6763 534946.2959 12997.6158 -5265.6763
ENERGY: 160 270.3362 684.1828 2923.2966 0.0000 -176285.2999 14758.1493 383.2847 0.0000 0.0000 -157266.0504 0.0000 -157266.0504 -157266.0504 0.0000 12739.4510 -5745.8991 534946.2959 12739.4510 -5745.8991
ENERGY: 180 172.6587 724.9578 2929.2188 0.0000 -179193.2102 15054.2740 478.3675 0.0000 0.0000 -159833.7335 0.0000 -159833.7335 -159833.7335 0.0000 12525.3562 -6234.0943 534946.2959 12525.3562 -6234.0943
ENERGY: 200 239.7814 694.0984 2941.4065 0.0000 -181558.6439 15587.5606 546.3383 0.0000 0.0000 -161549.4586 0.0000 -161549.4586 -161549.4586 0.0000 12582.6811 -6425.4577 534946.2959 12582.6811 -6425.4577
TCL: Setting parameter constraintScaling to 2.5
TCL: Minimizing for 100 steps
ETITLE: TS BOND ANGLE DIHED IMPRP ELECT VDW BOUNDARY MISC KINETIC TOTAL TEMP POTENTIAL TOTAL3 TEMPAVG PRESSURE GPRESSURE VOLUME PRESSAVG GPRESSAVG
ENERGY: 200 239.7814 694.0984 2941.4065 0.0000 -181558.6439 15587.5606 273.1692 0.0000 0.0000 -161822.6278 0.0000 -161822.6278 -161822.6278 0.0000 13229.6763 -25656.6185 534946.2959 13229.6763 -25656.6185
ENERGY: 220 245.1713 676.0179 2932.9756 0.0000 -182071.9054 15473.5916 336.6450 0.0000 0.0000 -162407.5040 0.0000 -162407.5040 -162407.5040 0.0000 12975.4756 -6086.5765 534946.2959 12975.4756 -6086.5765
ENERGY: 240 153.6797 693.8937 2928.7717 0.0000 -182681.2904 15530.1989 346.9403 0.0000 0.0000 -163027.8061 0.0000 -163027.8061 -163027.8061 0.0000 13034.1150 -6131.7300 534946.2959 13034.1150 -6131.7300
ENERGY: 260 233.9261 705.5412 2922.3939 0.0000 -183761.3049 15759.2650 380.3293 0.0000 0.0000 -163759.8493 0.0000 -163759.8493 -163759.8493 0.0000 13013.6129 -6241.4939 534946.2959 13013.6129 -6241.4939
ENERGY: 280 168.7917 701.2887 2917.5025 0.0000 -185420.5097 16226.3026 455.9819 0.0000 0.0000 -164950.6423 0.0000 -164950.6423 -164950.6423 0.0000 13139.8459 -6342.0240 534946.2959 13139.8459 -6342.0240
ENERGY: 300 126.9902 639.6685 2916.1664 0.0000 -186091.8152 16443.8396 482.0580 0.0000 0.0000 -165483.0924 0.0000 -165483.0924 -165483.0924 0.0000 13205.5758 -6344.7375 534946.2959 13205.5758 -6344.7375
TCL: Setting parameter constraintScaling to 1.25
TCL: Minimizing for 100 steps
ETITLE: TS BOND ANGLE DIHED IMPRP ELECT VDW BOUNDARY MISC KINETIC TOTAL TEMP POTENTIAL TOTAL3 TEMPAVG PRESSURE GPRESSURE VOLUME PRESSAVG GPRESSAVG
ENERGY: 300 126.9902 639.6685 2916.1664 0.0000 -186091.8152 16443.8396 241.0290 0.0000 0.0000 -165724.1214 0.0000 -165724.1214 -165724.1214 0.0000 13654.2010 -26354.2836 534946.2959 13654.2010 -26354.2836
ENERGY: 320 148.4818 635.2381 2911.2491 0.0000 -186779.4936 16610.0334 282.0168 0.0000 0.0000 -166192.4744 0.0000 -166192.4744 -166192.4744 0.0000 13614.0998 -5997.9041 534946.2959 13614.0998 -5997.9041
ENERGY: 340 137.1028 624.5686 2909.3286 0.0000 -187209.4599 16758.7693 287.9432 0.0000 0.0000 -166491.7474 0.0000 -166491.7474 -166491.7474 0.0000 13694.3228 -5971.8190 534946.2959 13694.3228 -5971.8190
ENERGY: 360 178.4821 662.8575 2907.2885 0.0000 -188590.6775 17224.0345 339.6298 0.0000 0.0000 -167278.3851 0.0000 -167278.3851 -167278.3851 0.0000 13844.0115 -5997.0732 534946.2959 13844.0115 -5997.0732
ENERGY: 380 141.5047 635.6096 2901.0050 0.0000 -190294.2003 17883.5038 395.9645 0.0000 0.0000 -168336.6128 0.0000 -168336.6128 -168336.6128 0.0000 14021.2240 -5974.3149 534946.2959 14021.2240 -5974.3149
ENERGY: 400 150.9246 659.9728 2903.3284 0.0000 -190537.0127 17939.6267 395.8170 0.0000 0.0000 -168487.3432 0.0000 -168487.3432 -168487.3432 0.0000 14130.3689 -5933.5694 534946.2959 14130.3689 -5933.5694
TCL: Setting parameter constraintScaling to 0.625
TCL: Minimizing for 100 steps
ETITLE: TS BOND ANGLE DIHED IMPRP ELECT VDW BOUNDARY MISC KINETIC TOTAL TEMP POTENTIAL TOTAL3 TEMPAVG PRESSURE GPRESSURE VOLUME PRESSAVG GPRESSAVG
ENERGY: 400 150.9246 659.9728 2903.3284 0.0000 -190537.0127 17939.6267 197.9085 0.0000 0.0000 -168685.2517 0.0000 -168685.2517 -168685.2517 0.0000 14428.8755 -26617.7788 534946.2959 14428.8755 -26617.7788
ENERGY: 420 151.7645 635.5703 2899.1550 0.0000 -190778.9604 18002.8940 209.7173 0.0000 0.0000 -168879.8594 0.0000 -168879.8594 -168879.8594 0.0000 14336.5306 -5714.9916 534946.2959 14336.5306 -5714.9916
ENERGY: 440 158.5977 636.9810 2890.7688 0.0000 -191595.9772 18241.7192 246.3088 0.0000 0.0000 -169421.6017 0.0000 -169421.6017 -169421.6017 0.0000 14370.2370 -5767.2223 534946.2959 14370.2370 -5767.2223
ENERGY: 460 172.6244 672.2921 2889.4786 0.0000 -192226.1211 18474.7687 257.6055 0.0000 0.0000 -169759.3518 0.0000 -169759.3518 -169759.3518 0.0000 14581.5449 -5679.7952 534946.2959 14581.5449 -5679.7952
ENERGY: 480 139.9122 636.2433 2886.0945 0.0000 -192646.5559 18632.2770 268.5198 0.0000 0.0000 -170083.5090 0.0000 -170083.5090 -170083.5090 0.0000 14602.6489 -5682.0999 534946.2959 14602.6489 -5682.0999
ENERGY: 500 149.5763 660.3470 2885.3134 0.0000 -193145.6909 18812.8847 287.7701 0.0000 0.0000 -170349.7995 0.0000 -170349.7995 -170349.7995 0.0000 14639.0512 -5692.9297 534946.2959 14639.0512 -5692.9297
TCL: Setting parameter constraintScaling to 0.3125
TCL: Minimizing for 100 steps
ETITLE: TS BOND ANGLE DIHED IMPRP ELECT VDW BOUNDARY MISC KINETIC TOTAL TEMP POTENTIAL TOTAL3 TEMPAVG PRESSURE GPRESSURE VOLUME PRESSAVG GPRESSAVG
ENERGY: 500 149.5763 660.3470 2885.3134 0.0000 -193145.6909 18812.8847 143.8850 0.0000 0.0000 -170493.6845 0.0000 -170493.6845 -170493.6845 0.0000 14827.1630 -26829.1067 534946.2959 14827.1630 -26829.1067
ENERGY: 520 144.2510 637.5760 2880.1436 0.0000 -193564.5791 18963.7923 151.3133 0.0000 0.0000 -170787.5029 0.0000 -170787.5029 -170787.5029 0.0000 14901.7042 -5480.0514 534946.2959 14901.7042 -5480.0514
ENERGY: 540 156.3978 669.2140 2877.8662 0.0000 -194580.7025 19325.3364 180.9241 0.0000 0.0000 -171370.9641 0.0000 -171370.9641 -171370.9641 0.0000 15011.6167 -5488.3943 534946.2959 15011.6167 -5488.3943
ENERGY: 560 375.0043 740.3027 2882.4958 0.0000 -195102.3549 19548.6617 183.1856 0.0000 0.0000 -171372.7048 0.0000 -171372.7048 -171372.7048 0.0000 15123.6250 -5424.8723 534946.2959 15123.6250 -5424.8723
ENERGY: 580 228.4455 719.6490 2886.8674 0.0000 -195820.2860 19835.7804 190.8687 0.0000 0.0000 -171958.6751 0.0000 -171958.6751 -171958.6751 0.0000 15312.1469 -5331.1382 534946.2959 15312.1469 -5331.1382
ENERGY: 600 160.8831 650.0633 2867.2564 0.0000 -196865.4738 20234.0060 219.9655 0.0000 0.0000 -172733.2995 0.0000 -172733.2995 -172733.2995 0.0000 15408.8733 -5339.4959 534946.2959 15408.8733 -5339.4959
TCL: Setting parameter constraintScaling to 0.15625
TCL: Minimizing for 100 steps
ETITLE: TS BOND ANGLE DIHED IMPRP ELECT VDW BOUNDARY MISC KINETIC TOTAL TEMP POTENTIAL TOTAL3 TEMPAVG PRESSURE GPRESSURE VOLUME PRESSAVG GPRESSAVG
ENERGY: 600 160.8831 650.0633 2867.2564 0.0000 -196865.4738 20234.0060 109.9827 0.0000 0.0000 -172843.2823 0.0000 -172843.2823 -172843.2823 0.0000 15531.5743 -27006.4254 534946.2959 15531.5743 -27006.4254
ENERGY: 620 163.5548 658.0803 2861.2095 0.0000 -197122.4784 20329.5357 114.3258 0.0000 0.0000 -172995.7723 0.0000 -172995.7723 -172995.7723 0.0000 15588.6091 -5190.0633 534946.2959 15588.6091 -5190.0633
ENERGY: 640 259.5713 689.4968 2864.6387 0.0000 -197579.2311 20482.8602 124.4854 0.0000 0.0000 -173158.1786 0.0000 -173158.1786 -173158.1786 0.0000 15613.0398 -5222.4449 534946.2959 15613.0398 -5222.4449
ENERGY: 660 166.2885 657.1959 2859.5659 0.0000 -197864.0576 20585.0060 128.4433 0.0000 0.0000 -173467.5579 0.0000 -173467.5579 -173467.5579 0.0000 15666.3501 -5198.9183 534946.2959 15666.3501 -5198.9183
ENERGY: 680 192.9164 679.7713 2859.5551 0.0000 -198273.7790 20746.5318 130.0252 0.0000 0.0000 -173664.9792 0.0000 -173664.9792 -173664.9792 0.0000 15774.5480 -5142.9930 534946.2959 15774.5480 -5142.9930
ENERGY: 700 207.8823 668.3098 2853.8968 0.0000 -199223.6451 21101.9314 143.5558 0.0000 0.0000 -174248.0691 0.0000 -174248.0691 -174248.0691 0.0000 15906.9837 -5112.7358 534946.2959 15906.9837 -5112.7358
TCL: Setting parameter constraintScaling to 0.078125
TCL: Minimizing for 100 steps
ETITLE: TS BOND ANGLE DIHED IMPRP ELECT VDW BOUNDARY MISC KINETIC TOTAL TEMP POTENTIAL TOTAL3 TEMPAVG PRESSURE GPRESSURE VOLUME PRESSAVG GPRESSAVG
ENERGY: 700 207.8823 668.3098 2853.8968 0.0000 -199223.6451 21101.9314 71.7779 0.0000 0.0000 -174319.8470 0.0000 -174319.8470 -174319.8470 0.0000 15979.1013 -27117.1810 534946.2959 15979.1013 -27117.1810
ENERGY: 720 156.2646 648.8574 2845.4901 0.0000 -199341.3345 21143.4158 72.8753 0.0000 0.0000 -174474.4313 0.0000 -174474.4313 -174474.4313 0.0000 16020.1923 -5016.5740 534946.2959 16020.1923 -5016.5740
ENERGY: 740 172.4419 659.8804 2841.4673 0.0000 -199791.5747 21307.0062 78.7776 0.0000 0.0000 -174732.0013 0.0000 -174732.0013 -174732.0013 0.0000 16074.8596 -5016.2411 534946.2959 16074.8596 -5016.2411
ENERGY: 760 164.3070 653.9927 2840.5009 0.0000 -200258.9481 21473.5022 83.6676 0.0000 0.0000 -175042.9777 0.0000 -175042.9777 -175042.9777 0.0000 16138.7682 -5006.7547 534946.2959 16138.7682 -5006.7547
ENERGY: 780 229.0119 678.1328 2841.3631 0.0000 -200565.0319 21597.2093 83.7645 0.0000 0.0000 -175135.5504 0.0000 -175135.5504 -175135.5504 0.0000 16203.4769 -4967.2734 534946.2959 16203.4769 -4967.2734
ENERGY: 800 158.7755 663.4534 2841.2452 0.0000 -201387.8717 21917.8272 90.0661 0.0000 0.0000 -175716.5043 0.0000 -175716.5043 -175716.5043 0.0000 16376.8262 -4897.9565 534946.2959 16376.8262 -4897.9565
TCL: Setting parameter constraintScaling to 0.0390625
TCL: Minimizing for 100 steps
ETITLE: TS BOND ANGLE DIHED IMPRP ELECT VDW BOUNDARY MISC KINETIC TOTAL TEMP POTENTIAL TOTAL3 TEMPAVG PRESSURE GPRESSURE VOLUME PRESSAVG GPRESSAVG
ENERGY: 800 158.7755 663.4534 2841.2452 0.0000 -201387.8717 21917.8272 45.0330 0.0000 0.0000 -175761.5373 0.0000 -175761.5373 -175761.5373 0.0000 16418.2965 -27201.8481 534946.2959 16418.2965 -27201.8481
ENERGY: 820 164.2653 661.1562 2827.7306 0.0000 -201697.8973 22031.1767 47.6097 0.0000 0.0000 -175965.9587 0.0000 -175965.9587 -175965.9587 0.0000 16477.2872 -4843.8376 534946.2959 16477.2872 -4843.8376
ENERGY: 840 177.3267 686.8767 2833.9540 0.0000 -202431.1678 22337.3923 53.5803 0.0000 0.0000 -176342.0379 0.0000 -176342.0379 -176342.0379 0.0000 16570.2698 -4826.5989 534946.2959 16570.2698 -4826.5989
ENERGY: 860 169.1983 663.7689 2824.0563 0.0000 -202508.6687 22345.4927 52.2446 0.0000 0.0000 -176453.9079 0.0000 -176453.9079 -176453.9079 0.0000 16613.6164 -4798.6486 534946.2959 16613.6164 -4798.6486
ENERGY: 880 325.6193 708.6837 2835.4710 0.0000 -203044.9842 22586.6809 53.2694 0.0000 0.0000 -176535.2599 0.0000 -176535.2599 -176535.2599 0.0000 16755.3191 -4719.2741 534946.2959 16755.3191 -4719.2741
ENERGY: 900 165.3306 655.7579 2824.2688 0.0000 -203862.6624 22962.2232 57.1655 0.0000 0.0000 -177197.9165 0.0000 -177197.9165 -177197.9165 0.0000 16954.7370 -4615.4116 534946.2959 16954.7370 -4615.4116
TCL: Setting parameter constraintScaling to 0.01953125
TCL: Minimizing for 100 steps
ETITLE: TS BOND ANGLE DIHED IMPRP ELECT VDW BOUNDARY MISC KINETIC TOTAL TEMP POTENTIAL TOTAL3 TEMPAVG PRESSURE GPRESSURE VOLUME PRESSAVG GPRESSAVG
ENERGY: 900 165.3306 655.7579 2824.2688 0.0000 -203862.6624 22962.2232 28.5827 0.0000 0.0000 -177226.4993 0.0000 -177226.4993 -177226.4993 0.0000 16978.8698 -27238.1977 534946.2959 16978.8698 -27238.1977
ENERGY: 920 159.7734 646.6793 2816.4858 0.0000 -203958.6499 22979.3020 29.0926 0.0000 0.0000 -177327.3168 0.0000 -177327.3168 -177327.3168 0.0000 16989.5865 -4593.3867 534946.2959 16989.5865 -4593.3867
ENERGY: 940 230.9342 683.7704 2820.3325 0.0000 -204400.9908 23171.7446 31.7499 0.0000 0.0000 -177462.4593 0.0000 -177462.4593 -177462.4593 0.0000 17020.6153 -4610.3763 534946.2959 17020.6153 -4610.3763
ENERGY: 960 176.2379 668.4045 2815.6324 0.0000 -204540.0508 23220.4561 31.9236 0.0000 0.0000 -177627.3963 0.0000 -177627.3963 -177627.3963 0.0000 17056.6779 -4592.1164 534946.2959 17056.6779 -4592.1164
ENERGY: 980 170.2258 651.7816 2816.7458 0.0000 -204851.0839 23362.9580 31.7566 0.0000 0.0000 -177817.6162 0.0000 -177817.6162 -177817.6162 0.0000 17175.9051 -4511.2629 534946.2959 17175.9051 -4511.2629
ENERGY: 1000 165.3131 665.0339 2820.4026 0.0000 -205184.6394 23540.4399 32.3775 0.0000 0.0000 -177961.0724 0.0000 -177961.0724 -177961.0724 0.0000 17280.1102 -4444.0014 534946.2959 17280.1102 -4444.0014
TCL: Setting parameter constraintScaling to 0
TCL: Minimizing for 5000 steps
ETITLE: TS BOND ANGLE DIHED IMPRP ELECT VDW BOUNDARY MISC KINETIC TOTAL TEMP POTENTIAL TOTAL3 TEMPAVG PRESSURE GPRESSURE VOLUME PRESSAVG GPRESSAVG
ENERGY: 1000 165.3131 665.0339 2820.4026 0.0000 -205184.6394 23540.4399 0.0000 0.0000 0.0000 -177993.4499 0.0000 -177993.4499 -177993.4499 0.0000 17306.2721 -27227.9989 534946.2959 17306.2721 -27227.9989
ENERGY: 2000 167.9123 661.4191 2801.7448 0.0000 -214439.3091 27613.4591 0.0000 0.0000 0.0000 -183194.7737 0.0000 -183194.7737 -183194.7737 0.0000 19434.2210 -3329.9925 534946.2959 19434.2210 -3329.9925
ENERGY: 3000 168.3236 666.5005 2794.4341 0.0000 -217374.1330 28872.4382 0.0000 0.0000 0.0000 -184872.4368 0.0000 -184872.4368 -184872.4368 0.0000 20106.1163 -2971.5404 534946.2959 20106.1163 -2971.5404
ENERGY: 4000 166.0488 663.5979 2785.1621 0.0000 -218705.9894 29400.8532 0.0000 0.0000 0.0000 -185690.3274 0.0000 -185690.3274 -185690.3274 0.0000 20382.1597 -2833.2689 534946.2959 20382.1597 -2833.2689
ENERGY: 5000 165.3752 662.8417 2781.4548 0.0000 -219458.2224 29731.0785 0.0000 0.0000 0.0000 -186117.4723 0.0000 -186117.4723 -186117.4723 0.0000 20552.9896 -2750.0750 534946.2959 20552.9896 -2750.0750
ENERGY: 6000 164.8179 660.9362 2782.8437 0.0000 -219935.6145 29927.5564 0.0000 0.0000 0.0000 -186399.4602 0.0000 -186399.4602 -186399.4602 0.0000 20663.7442 -2686.8622 534946.2959 20663.7442 -2686.8622
