Info: SIMULATION PARAMETERS:
Info: TIMESTEP               1
Info: NUMBER OF STEPS        0
Info: STEPS PER CYCLE        10
Info: PERIODIC CELL BASIS 1  72.449 0 0
Info: PERIODIC CELL BASIS 2  0 93.247 0
Info: PERIODIC CELL BASIS 3  0 0 79.185
Info: PERIODIC CELL CENTER   -0.248 -0.156 -0.047
Info: WRAPPING WATERS AROUND PERIODIC BOUNDARIES ON OUTPUT.
Info: WRAPPING ALL CLUSTERS AROUND PERIODIC BOUNDARIES ON OUTPUT.
Info: FIRST LDB TIMESTEP     50
Info: LAST LDB TIMESTEP     -1
Info: HOM BACKGROUND SCALING 1
Info: PME BACKGROUND SCALING 1
Info: MIN ATOMS PER PATCH    40
Info: VELOCITY FILE          ../replicas/rep48/equilibration/eq1.vel
Info: CENTER OF MASS MOVING INITIALLY? NO
Info: DIELECTRIC             1
Info: EXCLUDE                SCALED ONE-FOUR
Info: 1-4 ELECTROSTATICS SCALED BY 0.833333
Info: MODIFIED 1-4 VDW PARAMETERS WILL BE USED
Info: DCD FILENAME           ../replicas/rep48/equilibration/eq2.dcd
Info: DCD FREQUENCY          5000
Info: DCD FIRST STEP         5000
Info: DCD FILE WILL CONTAIN UNIT CELL DATA
Info: XST FILENAME           ../replicas/rep48/equilibration/eq2.xst
Info: XST FREQUENCY          5000
Info: NO VELOCITY DCD OUTPUT
Info: NO FORCE DCD OUTPUT
Info: OUTPUT FILENAME        ../replicas/rep48/equilibration/eq2
Info: RESTART FILENAME       ../replicas/rep48/equilibration/eq2.restart
Info: RESTART FREQUENCY      5000
Info: BINARY RESTART FILES WILL BE USED
Info: SWITCHING ACTIVE
Info: SWITCHING ON           10
Info: SWITCHING OFF          12
Info: PAIRLIST DISTANCE      13.5
Info: PAIRLIST SHRINK RATE   0.01
Info: PAIRLIST GROW RATE     0.01
Info: PAIRLIST TRIGGER       0.3
Info: PAIRLISTS PER CYCLE    2
Info: PAIRLISTS ENABLED
Info: MARGIN                 0.48
Info: HYDROGEN GROUP CUTOFF  2.5
Info: PATCH DIMENSION        16.48
Info: ENERGY OUTPUT STEPS    500
Info: CROSSTERM ENERGY INCLUDED IN DIHEDRAL
Info: TIMING OUTPUT STEPS    5000
Info: PRESSURE OUTPUT STEPS  500
Info: HARMONIC CONSTRAINTS ACTIVE
Info: HARMONIC CONS EXP      2
Info: HARMONIC CONS SCALING  10
Info: LANGEVIN DYNAMICS ACTIVE
Info: LANGEVIN TEMPERATURE   300
Info: LANGEVIN USING BBK INTEGRATOR
Info: LANGEVIN DAMPING COEFFICIENT IS 5 INVERSE PS
Info: LANGEVIN DYNAMICS NOT APPLIED TO HYDROGENS
Info: BERENDSEN PRESSURE COUPLING ACTIVE
Info:     TARGET PRESSURE IS 1 BAR
Info:     COMPRESSIBILITY ESTIMATE IS 4.57e-05 BAR^(-1)
Info:     RELAXATION TIME IS 100 FS
Info:     APPLIED EVERY 2 STEPS
Info:     PRESSURE CONTROL IS GROUP-BASED
Info:       CELL FLUCTUATION IS ISOTROPIC
Info: PARTICLE MESH EWALD (PME) ACTIVE
Info: PME TOLERANCE               1e-06
Info: PME EWALD COEFFICIENT       0.257952
Info: PME INTERPOLATION ORDER     4
Info: PME GRID DIMENSIONS         80 96 80
Info: PME MAXIMUM GRID SPACING    1
Info: FULL ELECTROSTATIC EVALUATION FREQUENCY      2
Info: USING VERLET I (r-RESPA) MTS SCHEME.
Info: C1 SPLITTING OF LONG RANGE ELECTROSTATICS
Info: PLACING ATOMS IN PATCHES BY HYDROGEN GROUPS
Info: RIGID BONDS TO HYDROGEN : WATER
Info:         ERROR TOLERANCE : 1e-05
Info:          MAX ITERATIONS : 100
Info: RIGID WATER USING SETTLE ALGORITHM
Info: RANDOM NUMBER SEED     1503708769
Info: USE HYDROGEN BONDS?    NO
Info: Using AMBER format force field!
Info: AMBER PARM FILE        ../build/complex.top
Info: COORDINATE PDB         ../replicas/rep48/equilibration/eq1.coor
Info: Exclusions in PARM file will be ignored!
Info: SCNB (VDW SCALING)     2
Info: USING ARITHMETIC MEAN TO COMBINE L-J SIGMA PARAMETERS
Info: SUMMARY OF PARAMETERS:
Info: 71 BONDS
Info: 145 ANGLES
Info: 76 DIHEDRAL
Info: 0 IMPROPER
Info: 0 CROSSTERM
Info: 0 VDW
Info: 190 VDW_PAIRS
Info: 0 NBTHOLE_PAIRS
Info: STRUCTURE SUMMARY:
Info: 49394 ATOMS
Info: 49448 BONDS
Info: 8698 ANGLES
Info: 18780 DIHEDRALS
Info: 0 IMPROPERS
Info: 0 CROSSTERMS
Info: 0 EXCLUSIONS
Info: 2336 CONSTRAINTS
Info: 44667 RIGID BONDS
Info: 103515 DEGREES OF FREEDOM
Info: 17225 HYDROGEN GROUPS
Info: 4 ATOMS IN LARGEST HYDROGEN GROUP
Info: 17225 MIGRATION GROUPS
Info: 4 ATOMS IN LARGEST MIGRATION GROUP
Info: TOTAL MASS = 301478 amu
Info: TOTAL CHARGE = 1.00115e-05 e
Info: MASS DENSITY = 0.935846 g/cm^3
Info: ATOM DENSITY = 0.0923345 atoms/A^3
Info: ADDED 70656 IMPLICIT EXCLUSIONS
Info: NONBONDED TABLE R-SQUARED SPACING: 0.0625
Info: NONBONDED TABLE SIZE: 769 POINTS
Info: REMOVING COM VELOCITY 0.0267838 0.0343784 0.0174398
TCL: Running for 5000 steps
ETITLE: TS BOND ANGLE DIHED IMPRP ELECT VDW BOUNDARY MISC KINETIC TOTAL TEMP POTENTIAL TOTAL3 TEMPAVG PRESSURE GPRESSURE VOLUME PRESSAVG GPRESSAVG
ENERGY: 0 381.4080 1215.2242 2905.9508 0.0000 -212931.5287 29677.3226 0.0000 0.0000 10088.9585 -168662.6646 98.0920 -178751.6231 -168653.2219 98.0920 -2330.9345 -2430.6217 534946.2959 -2330.9345 -2430.6217
ENERGY: 1000 1241.2914 1935.7306 3103.3931 0.0000 -193786.6112 26630.3448 785.7417 0.0000 24017.2699 -136072.8398 233.5128 -160090.1097 -136058.2678 218.1936 -31.2379 -25.6080 523104.2976 0.2118 0.0555
ENERGY: 2000 1491.3291 2128.5920 3152.3665 0.0000 -184530.8462 23468.3668 810.7549 0.0000 27759.9932 -125719.4438 269.9022 -153479.4370 -125685.5045 263.7925 -5.8016 17.3116 514561.4755 -35.6119 -35.6789
ENERGY: 3000 1491.7356 2139.6922 3124.8564 0.0000 -179646.4409 22057.4625 779.6456 0.0000 29368.0146 -120685.0341 285.5365 -150053.0487 -120641.7225 283.9811 -43.7563 -19.0307 510130.9684 -28.0765 -28.0125
ENERGY: 4000 1563.5967 2193.3513 3144.9219 0.0000 -177225.0389 20958.7159 819.5906 0.0000 30490.9290 -118053.9334 296.4543 -148544.8624 -118011.3641 293.7495 -62.1064 -25.5896 506669.7318 -17.6299 -18.3424
ENERGY: 5000 1538.9995 2234.8262 3168.3714 0.0000 -176240.4014 20501.1582 803.7290 0.0000 30393.8262 -117599.4909 295.5102 -147993.3171 -117550.7085 296.6241 -41.4791 -52.3516 506034.2840 5.7148 5.0050
TCL: Setting parameter constraintScaling to 5.0
TCL: Running for 5000 steps
ETITLE: TS BOND ANGLE DIHED IMPRP ELECT VDW BOUNDARY MISC KINETIC TOTAL TEMP POTENTIAL TOTAL3 TEMPAVG PRESSURE GPRESSURE VOLUME PRESSAVG GPRESSAVG
ENERGY: 5000 1538.9995 2234.8262 3168.3714 0.0000 -176240.4014 20501.1582 401.8645 0.0000 30391.7718 -118003.4098 295.4902 -148395.1816 -117958.9142 295.4902 -124.7197 -136.6486 506034.2840 -124.7197 -136.6486
ENERGY: 6000 1576.5992 2307.5761 3170.0481 0.0000 -176155.0268 20484.1320 624.0926 0.0000 30613.1792 -117379.3997 297.6429 -147992.5788 -117332.4726 296.4686 -15.1801 -6.1802 501404.8127 -9.6043 -9.7164
ENERGY: 7000 1595.4116 2350.0008 3152.9592 0.0000 -175765.9704 20155.5590 653.8624 0.0000 30714.1575 -117144.0199 298.6247 -147858.1775 -117100.7473 298.7551 -66.4147 -32.9629 501834.0714 -7.1567 -6.8364
ENERGY: 8000 1637.0126 2310.4459 3160.7458 0.0000 -175391.7187 20001.6174 664.2717 0.0000 30614.5248 -117003.1006 297.6560 -147617.6254 -116956.6689 299.3829 20.5273 6.8559 501783.2910 5.0604 5.6935
ENERGY: 9000 1569.2312 2255.0606 3159.9955 0.0000 -175620.1260 20143.0564 659.0128 0.0000 30939.8257 -116893.9438 300.8188 -147833.7695 -116842.7745 300.1517 -79.8213 -71.1073 499661.8683 -13.2084 -13.4198
ENERGY: 10000 1649.5796 2294.9192 3157.4714 0.0000 -175537.5672 20174.6903 634.3529 0.0000 30688.4587 -116938.0950 298.3748 -147626.5537 -116890.2694 299.8775 23.9088 24.1254 500485.7407 3.5566 3.1413
TCL: Setting parameter constraintScaling to 2.5
TCL: Running for 5000 steps
ETITLE: TS BOND ANGLE DIHED IMPRP ELECT VDW BOUNDARY MISC KINETIC TOTAL TEMP POTENTIAL TOTAL3 TEMPAVG PRESSURE GPRESSURE VOLUME PRESSAVG GPRESSAVG
ENERGY: 10000 1649.5796 2294.9192 3157.4714 0.0000 -175537.5672 20174.6903 317.1765 0.0000 30686.3761 -117257.3540 298.3546 -147943.7302 -117214.8063 298.3546 -44.8622 -41.9442 500485.7407 -44.8622 -41.9442
ENERGY: 11000 1636.5359 2367.7797 3163.9134 0.0000 -175946.1577 20260.2912 506.2617 0.0000 30677.1331 -117334.2426 298.2647 -148011.3758 -117287.9106 299.1312 -65.7150 -2.3741 498905.6061 -14.7188 -14.5903
ENERGY: 12000 1584.9956 2380.3514 3157.3041 0.0000 -176138.2735 20279.3661 493.2948 0.0000 30833.7124 -117409.2491 299.7871 -148242.9615 -117376.5233 299.4612 -57.5904 -23.0748 499900.1525 2.0016 2.1774
ENERGY: 13000 1598.6987 2308.8480 3209.4019 0.0000 -175531.2545 20069.5249 534.5581 0.0000 30770.7738 -117039.4491 299.1751 -147810.2229 -116983.7094 299.4235 36.7401 45.2589 499670.4781 -1.9298 -1.0035
ENERGY: 14000 1610.6212 2342.4820 3156.6727 0.0000 -175859.1989 20227.0562 500.9927 0.0000 30678.6026 -117342.7716 298.2790 -148021.3742 -117294.2448 299.3327 -25.6946 -5.4151 498788.8476 -5.3377 -5.6626
ENERGY: 15000 1633.3246 2345.7037 3183.6950 0.0000 -175813.6920 20037.6919 513.6869 0.0000 30757.7995 -117341.7905 299.0490 -148099.5900 -117295.0350 298.7070 -59.1751 -91.4949 498621.8576 7.8640 7.2275
TCL: Setting parameter constraintScaling to 1.25
TCL: Running for 5000 steps
ETITLE: TS BOND ANGLE DIHED IMPRP ELECT VDW BOUNDARY MISC KINETIC TOTAL TEMP POTENTIAL TOTAL3 TEMPAVG PRESSURE GPRESSURE VOLUME PRESSAVG GPRESSAVG
ENERGY: 15000 1633.3246 2345.7037 3183.6950 0.0000 -175813.6920 20037.6919 256.8435 0.0000 30755.7705 -117600.6629 299.0293 -148356.4334 -117554.1045 299.0293 -77.3666 -104.8542 498621.8576 -77.3666 -104.8542
ENERGY: 16000 1652.6560 2377.7302 3201.2476 0.0000 -175529.0717 20045.0485 419.8090 0.0000 30659.0642 -117173.5162 298.0890 -147832.5804 -117140.0353 299.9443 -164.0128 -20.6424 498446.1062 -6.9058 -6.9511
ENERGY: 17000 1582.2050 2372.1724 3214.6793 0.0000 -175481.1518 19760.4139 419.6564 0.0000 30925.4618 -117206.5629 300.6791 -148132.0247 -117150.6351 299.8289 70.8517 33.9090 498006.9839 -1.6511 -1.7483
ENERGY: 18000 1703.0079 2357.9590 3163.0207 0.0000 -175356.3170 19971.9701 387.5038 0.0000 30882.2737 -116890.5818 300.2592 -147772.8556 -116837.9726 301.1201 -63.6344 52.5972 497976.0934 1.8817 2.3288
ENERGY: 19000 1614.5244 2395.1380 3181.8847 0.0000 -175669.2580 20084.3357 395.3523 0.0000 30853.7679 -117144.2550 299.9821 -147998.0229 -117101.1552 300.0283 147.5225 134.2467 498848.4568 11.1875 11.2448
ENERGY: 20000 1616.8515 2439.1969 3235.6955 0.0000 -175649.9614 19865.1234 407.8676 0.0000 30763.8419 -117321.3846 299.1078 -148085.2265 -117275.0776 300.3596 -74.7213 -14.5431 497914.3515 0.2473 0.4743
TCL: Setting parameter constraintScaling to 0.625
TCL: Running for 5000 steps
ETITLE: TS BOND ANGLE DIHED IMPRP ELECT VDW BOUNDARY MISC KINETIC TOTAL TEMP POTENTIAL TOTAL3 TEMPAVG PRESSURE GPRESSURE VOLUME PRESSAVG GPRESSAVG
ENERGY: 20000 1616.8515 2439.1969 3235.6955 0.0000 -175649.9614 19865.1234 203.9338 0.0000 30761.8152 -117527.3451 299.0880 -148289.1602 -117481.3484 299.0880 -168.9299 -108.5262 497914.3515 -168.9299 -108.5262
ENERGY: 21000 1636.5761 2411.6707 3209.1538 0.0000 -175972.1596 20025.6759 310.5883 0.0000 30952.3229 -117426.1719 300.9403 -148378.4949 -117382.7940 299.2592 4.1291 24.2738 498128.2522 6.8779 6.2092
ENERGY: 22000 1638.0752 2415.3779 3213.4617 0.0000 -175886.8825 20059.4885 292.1641 0.0000 31071.1157 -117197.1992 302.0953 -148268.3149 -117150.7777 300.4370 -53.7965 -33.8448 498221.1844 7.4891 7.1138
ENERGY: 23000 1674.2501 2395.5270 3211.2154 0.0000 -175731.0704 20033.0799 323.2556 0.0000 30964.9011 -117128.8413 301.0626 -148093.7424 -117078.1259 300.8911 -82.7355 -21.0975 498833.1101 -1.7557 -1.5174
ENERGY: 24000 1584.9649 2423.7286 3186.8275 0.0000 -175931.2275 20208.6742 322.9971 0.0000 30793.5578 -117410.4775 299.3967 -148204.0353 -117366.9495 299.3018 -171.1986 -96.8603 498032.2844 1.2489 1.7345
ENERGY: 25000 1689.6921 2329.1041 3189.1354 0.0000 -175885.5978 20275.3021 315.8648 0.0000 30717.1213 -117369.3780 298.6535 -148086.4993 -117323.3993 299.3001 47.1542 44.7644 499337.1100 7.0835 7.2276
TCL: Setting parameter constraintScaling to 0.3125
TCL: Running for 5000 steps
ETITLE: TS BOND ANGLE DIHED IMPRP ELECT VDW BOUNDARY MISC KINETIC TOTAL TEMP POTENTIAL TOTAL3 TEMPAVG PRESSURE GPRESSURE VOLUME PRESSAVG GPRESSAVG
ENERGY: 25000 1689.6921 2329.1041 3189.1354 0.0000 -175885.5978 20275.3021 157.9324 0.0000 30715.0623 -117529.3694 298.6335 -148244.4317 -117489.3615 298.6335 64.7397 64.5367 499337.1100 64.7397 64.5367
ENERGY: 26000 1597.8744 2388.6435 3215.2673 0.0000 -175604.2753 20053.7740 249.7864 0.0000 30615.2377 -117483.6919 297.6629 -148098.9297 -117437.8157 298.0651 10.8301 87.8878 498470.1867 1.7373 1.9469
ENERGY: 27000 1569.9012 2348.0307 3209.9594 0.0000 -175749.4427 19877.9580 241.2321 0.0000 30870.1079 -117632.2533 300.1409 -148502.3612 -117583.7289 299.0637 -55.4055 -2.2133 498740.0868 -13.9856 -13.9011
ENERGY: 28000 1663.5912 2337.7476 3185.6783 0.0000 -175945.9890 20270.9038 260.3923 0.0000 30899.4482 -117328.2277 300.4262 -148227.6759 -117277.6538 299.8130 -8.5668 -57.9313 497866.3840 4.9606 5.1762
ENERGY: 29000 1653.5960 2425.1228 3200.5393 0.0000 -175802.7703 20000.1034 277.8157 0.0000 31005.1159 -117240.4773 301.4536 -148245.5931 -117190.7951 300.5030 -89.1785 -77.4980 498296.8880 -7.8500 -7.9990
ENERGY: 30000 1636.8673 2410.9638 3166.6006 0.0000 -175826.1185 19934.4948 266.6647 0.0000 30697.1714 -117713.3560 298.4595 -148410.5274 -117666.7056 298.6050 -43.7691 49.1281 496364.4925 -8.5962 -9.1156
TCL: Setting parameter constraintScaling to 0.15625
TCL: Running for 5000 steps
ETITLE: TS BOND ANGLE DIHED IMPRP ELECT VDW BOUNDARY MISC KINETIC TOTAL TEMP POTENTIAL TOTAL3 TEMPAVG PRESSURE GPRESSURE VOLUME PRESSAVG GPRESSAVG
ENERGY: 30000 1636.8673 2410.9638 3166.6006 0.0000 -175826.1185 19934.4948 133.3324 0.0000 30695.1324 -117848.7274 298.4397 -148543.8598 -117803.3922 298.4397 -86.0499 4.9672 496364.4925 -86.0499 4.9672
ENERGY: 31000 1667.1303 2444.0563 3200.3382 0.0000 -175919.0789 20018.2333 216.6826 0.0000 30870.4799 -117502.1584 300.1446 -148372.6383 -117453.3509 300.0230 94.4723 56.2224 496861.7735 1.9447 2.1312
ENERGY: 32000 1718.9486 2387.9160 3213.4476 0.0000 -176181.5922 20122.8106 219.9121 0.0000 30798.3614 -117720.1959 299.4434 -148518.5573 -117676.1121 299.2269 -155.6219 -176.6061 496923.6346 4.9340 5.6463
ENERGY: 33000 1636.7057 2402.3340 3218.1810 0.0000 -176148.2607 20211.9367 199.5372 0.0000 30718.4665 -117761.0997 298.6666 -148479.5662 -117718.8060 299.0236 0.6786 17.2289 497688.5839 -1.2638 -1.3989
ENERGY: 34000 1672.1029 2346.2087 3190.8336 0.0000 -176372.8812 20287.4512 204.7680 0.0000 30890.8387 -117780.6781 300.3425 -148671.5168 -117741.2119 298.2577 -29.5682 -18.9518 497113.8381 -0.5272 -0.0734
ENERGY: 35000 1644.5601 2469.0609 3222.0865 0.0000 -176308.2507 20127.8205 221.4510 0.0000 30742.6028 -117880.6688 298.9013 -148623.2716 -117833.2932 299.4757 -59.9112 -20.0042 498097.3197 3.7085 3.0795
TCL: Setting parameter constraintScaling to 0.078125
TCL: Running for 5000 steps
ETITLE: TS BOND ANGLE DIHED IMPRP ELECT VDW BOUNDARY MISC KINETIC TOTAL TEMP POTENTIAL TOTAL3 TEMPAVG PRESSURE GPRESSURE VOLUME PRESSAVG GPRESSAVG
ENERGY: 35000 1644.5601 2469.0609 3222.0865 0.0000 -176308.2507 20127.8205 110.7255 0.0000 30740.5696 -117993.4275 298.8815 -148733.9971 -117945.8476 298.8815 -114.0761 -78.2183 498097.3197 -114.0761 -78.2183
ENERGY: 36000 1653.6065 2437.4522 3215.3830 0.0000 -175997.3928 20001.2262 156.3083 0.0000 30622.0620 -117911.3546 297.7293 -148533.4166 -117875.4903 298.8206 -55.3902 -13.6056 497682.7639 2.7240 2.4171
ENERGY: 37000 1665.2435 2361.4685 3220.5394 0.0000 -176431.8483 20285.3096 155.9450 0.0000 30933.0922 -117810.2501 300.7533 -148743.3423 -117755.1079 298.6291 124.6651 101.7526 497368.8412 5.2613 5.0888
ENERGY: 38000 1614.8262 2424.3332 3202.4226 0.0000 -175647.9074 20018.6436 161.3793 0.0000 30834.5040 -117391.7984 299.7948 -148226.3024 -117358.2778 300.3952 -83.0422 -75.9484 497731.7900 -1.0458 -1.2151
ENERGY: 39000 1603.3866 2326.2498 3204.1303 0.0000 -175999.7730 20017.3663 157.4220 0.0000 31101.5731 -117589.6449 302.3914 -148691.2180 -117551.9676 299.8821 161.5815 63.8546 497007.3582 -1.3730 -1.7574
ENERGY: 40000 1648.2896 2401.1380 3211.8916 0.0000 -175862.0797 20038.6334 167.8017 0.0000 30598.4051 -117795.9203 297.4993 -148394.3254 -117761.0360 299.2507 -105.3601 -37.8094 497310.2753 -9.4706 -9.3267
TCL: Setting parameter constraintScaling to 0.0390625
TCL: Running for 5000 steps
ETITLE: TS BOND ANGLE DIHED IMPRP ELECT VDW BOUNDARY MISC KINETIC TOTAL TEMP POTENTIAL TOTAL3 TEMPAVG PRESSURE GPRESSURE VOLUME PRESSAVG GPRESSAVG
ENERGY: 40000 1648.2896 2401.1380 3211.8916 0.0000 -175862.0797 20038.6334 83.9009 0.0000 30596.3619 -117881.8644 297.4794 -148478.2263 -117839.9541 297.4794 -115.3785 -46.5952 497310.2753 -115.3785 -46.5952
ENERGY: 41000 1638.1007 2397.3367 3217.4609 0.0000 -175549.9597 19908.2892 105.1902 0.0000 30854.2541 -117429.3279 299.9868 -148283.5819 -117393.7615 299.5055 -256.9073 -134.5242 497919.2165 1.0387 0.3599
ENERGY: 42000 1634.5728 2379.0602 3215.1558 0.0000 -175760.5550 20035.3908 111.3648 0.0000 30730.7668 -117654.2437 298.7862 -148385.0105 -117605.6498 298.0928 -87.7319 -28.0604 497410.0926 -5.3773 -5.4232
ENERGY: 43000 1646.6348 2368.6977 3214.1717 0.0000 -175921.9807 20173.8050 119.7324 0.0000 30944.8590 -117454.0800 300.8677 -148398.9391 -117417.1330 300.1927 83.2669 115.9684 497091.7274 -4.7740 -5.4458
ENERGY: 44000 1627.9433 2389.8155 3187.0864 0.0000 -176087.1318 20221.0096 120.4694 0.0000 30891.4304 -117649.3772 300.3483 -148540.8076 -117600.0811 299.6767 -48.1348 32.4897 497953.3532 13.5173 13.8109
ENERGY: 45000 1616.2676 2438.6869 3212.9160 0.0000 -176201.9207 20061.4233 125.1139 0.0000 30676.6490 -118070.8640 298.2600 -148747.5130 -118024.5537 298.5163 -166.9152 -139.3367 497269.6159 -3.1664 -3.3117
TCL: Setting parameter constraintScaling to 0.01953125
TCL: Running for 5000 steps
ETITLE: TS BOND ANGLE DIHED IMPRP ELECT VDW BOUNDARY MISC KINETIC TOTAL TEMP POTENTIAL TOTAL3 TEMPAVG PRESSURE GPRESSURE VOLUME PRESSAVG GPRESSAVG
ENERGY: 45000 1616.2676 2438.6869 3212.9160 0.0000 -176201.9207 20061.4233 62.5570 0.0000 30674.5996 -118135.4703 298.2401 -148810.0699 -118091.3099 298.2401 -177.0398 -154.9421 497269.6159 -177.0398 -154.9421
ENERGY: 46000 1625.8635 2391.2725 3214.4148 0.0000 -175759.4122 19915.5859 71.7937 0.0000 30851.6867 -117688.7950 299.9618 -148540.4817 -117638.6932 299.1291 -220.8230 -100.7277 497430.3950 12.2889 12.2610
ENERGY: 47000 1616.2514 2460.4467 3201.4214 0.0000 -176009.9740 20026.4436 81.2933 0.0000 30969.0996 -117655.0181 301.1034 -148624.1177 -117617.2863 299.0093 -76.4818 5.2705 495791.7743 0.5880 0.6769
ENERGY: 48000 1605.2778 2408.8156 3207.8590 0.0000 -175819.9868 19951.5998 90.9344 0.0000 30723.5116 -117831.9887 298.7156 -148555.5003 -117786.9200 299.8271 -58.9197 -26.4466 496541.5820 1.8313 1.6348
ENERGY: 49000 1639.8100 2388.9236 3206.1379 0.0000 -176026.1538 20068.7027 89.0171 0.0000 30797.9731 -117835.5893 299.4396 -148633.5624 -117791.2218 299.2804 -90.5536 -4.8601 496083.1947 -4.1039 -3.8730
ENERGY: 50000 1624.1440 2438.8300 3193.8819 0.0000 -175910.8114 20179.9426 93.8042 0.0000 30965.6429 -117414.5659 301.0698 -148380.2088 -117358.9296 300.1619 -17.4195 -7.3719 496911.7212 -3.5547 -3.5374
TCL: Setting parameter constraintScaling to 0
TCL: Running for 5000 steps
ETITLE: TS BOND ANGLE DIHED IMPRP ELECT VDW BOUNDARY MISC KINETIC TOTAL TEMP POTENTIAL TOTAL3 TEMPAVG PRESSURE GPRESSURE VOLUME PRESSAVG GPRESSAVG
ENERGY: 50000 1624.1440 2438.8300 3193.8819 0.0000 -175910.8114 20179.9426 0.0000 0.0000 30963.5908 -117510.4222 301.0499 -148474.0130 -117466.2011 301.0499 -35.7874 -20.4614 496911.7212 -35.7874 -20.4614
ENERGY: 51000 1667.6578 2466.8331 3204.7493 0.0000 -175920.2484 20108.2125 0.0000 0.0000 30736.5129 -117736.2828 298.8420 -148472.7957 -117699.6546 299.9516 -7.0576 51.7882 498185.0505 10.8455 10.9564
ENERGY: 52000 1623.4430 2428.2871 3217.1782 0.0000 -175961.4036 20006.8513 0.0000 0.0000 30884.4823 -117801.1617 300.2807 -148685.6440 -117755.0037 300.4799 -12.0833 13.4536 495140.9041 -22.2895 -22.3712
ENERGY: 53000 1611.0161 2335.8893 3233.2239 0.0000 -175598.6009 19811.9233 0.0000 0.0000 30872.3422 -117734.2061 300.1627 -148606.5484 -117683.2130 299.2509 -112.0131 -14.4517 494811.5777 -11.2197 -10.7792
ENERGY: 54000 1691.2215 2482.2035 3234.9355 0.0000 -176010.2785 20173.2866 0.0000 0.0000 30752.3707 -117676.2607 298.9962 -148428.6314 -117636.2860 300.2640 37.0022 1.6015 498479.3887 11.7339 11.3144
ENERGY: 55000 1616.4323 2458.8658 3208.7179 0.0000 -176026.5670 20145.1258 0.0000 0.0000 30929.7165 -117667.7086 300.7205 -148597.4251 -117627.9975 300.1244 -119.1057 -19.4438 496759.5327 0.3463 0.8275
