Info: SIMULATION PARAMETERS:
Info: TIMESTEP               1
Info: NUMBER OF STEPS        0
Info: STEPS PER CYCLE        10
Info: PERIODIC CELL BASIS 1  72.449 0 0
Info: PERIODIC CELL BASIS 2  0 93.247 0
Info: PERIODIC CELL BASIS 3  0 0 79.185
Info: PERIODIC CELL CENTER   -0.248 -0.156 -0.047
Info: WRAPPING WATERS AROUND PERIODIC BOUNDARIES ON OUTPUT.
Info: WRAPPING ALL CLUSTERS AROUND PERIODIC BOUNDARIES ON OUTPUT.
Info: FIRST LDB TIMESTEP     50
Info: LAST LDB TIMESTEP     -1
Info: HOM BACKGROUND SCALING 1
Info: PME BACKGROUND SCALING 1
Info: MIN ATOMS PER PATCH    40
Info: VELOCITY FILE          ../replicas/rep42/equilibration/eq1.vel
Info: CENTER OF MASS MOVING INITIALLY? NO
Info: DIELECTRIC             1
Info: EXCLUDE                SCALED ONE-FOUR
Info: 1-4 ELECTROSTATICS SCALED BY 0.833333
Info: MODIFIED 1-4 VDW PARAMETERS WILL BE USED
Info: DCD FILENAME           ../replicas/rep42/equilibration/eq2.dcd
Info: DCD FREQUENCY          5000
Info: DCD FIRST STEP         5000
Info: DCD FILE WILL CONTAIN UNIT CELL DATA
Info: XST FILENAME           ../replicas/rep42/equilibration/eq2.xst
Info: XST FREQUENCY          5000
Info: NO VELOCITY DCD OUTPUT
Info: NO FORCE DCD OUTPUT
Info: OUTPUT FILENAME        ../replicas/rep42/equilibration/eq2
Info: RESTART FILENAME       ../replicas/rep42/equilibration/eq2.restart
Info: RESTART FREQUENCY      5000
Info: BINARY RESTART FILES WILL BE USED
Info: SWITCHING ACTIVE
Info: SWITCHING ON           10
Info: SWITCHING OFF          12
Info: PAIRLIST DISTANCE      13.5
Info: PAIRLIST SHRINK RATE   0.01
Info: PAIRLIST GROW RATE     0.01
Info: PAIRLIST TRIGGER       0.3
Info: PAIRLISTS PER CYCLE    2
Info: PAIRLISTS ENABLED
Info: MARGIN                 0.48
Info: HYDROGEN GROUP CUTOFF  2.5
Info: PATCH DIMENSION        16.48
Info: ENERGY OUTPUT STEPS    500
Info: CROSSTERM ENERGY INCLUDED IN DIHEDRAL
Info: TIMING OUTPUT STEPS    5000
Info: PRESSURE OUTPUT STEPS  500
Info: HARMONIC CONSTRAINTS ACTIVE
Info: HARMONIC CONS EXP      2
Info: HARMONIC CONS SCALING  10
Info: LANGEVIN DYNAMICS ACTIVE
Info: LANGEVIN TEMPERATURE   300
Info: LANGEVIN USING BBK INTEGRATOR
Info: LANGEVIN DAMPING COEFFICIENT IS 5 INVERSE PS
Info: LANGEVIN DYNAMICS NOT APPLIED TO HYDROGENS
Info: BERENDSEN PRESSURE COUPLING ACTIVE
Info:     TARGET PRESSURE IS 1 BAR
Info:     COMPRESSIBILITY ESTIMATE IS 4.57e-05 BAR^(-1)
Info:     RELAXATION TIME IS 100 FS
Info:     APPLIED EVERY 2 STEPS
Info:     PRESSURE CONTROL IS GROUP-BASED
Info:       CELL FLUCTUATION IS ISOTROPIC
Info: PARTICLE MESH EWALD (PME) ACTIVE
Info: PME TOLERANCE               1e-06
Info: PME EWALD COEFFICIENT       0.257952
Info: PME INTERPOLATION ORDER     4
Info: PME GRID DIMENSIONS         80 96 80
Info: PME MAXIMUM GRID SPACING    1
Info: FULL ELECTROSTATIC EVALUATION FREQUENCY      2
Info: USING VERLET I (r-RESPA) MTS SCHEME.
Info: C1 SPLITTING OF LONG RANGE ELECTROSTATICS
Info: PLACING ATOMS IN PATCHES BY HYDROGEN GROUPS
Info: RIGID BONDS TO HYDROGEN : WATER
Info:         ERROR TOLERANCE : 1e-05
Info:          MAX ITERATIONS : 100
Info: RIGID WATER USING SETTLE ALGORITHM
Info: RANDOM NUMBER SEED     1503717217
Info: USE HYDROGEN BONDS?    NO
Info: Using AMBER format force field!
Info: AMBER PARM FILE        ../build/complex.top
Info: COORDINATE PDB         ../replicas/rep42/equilibration/eq1.coor
Info: Exclusions in PARM file will be ignored!
Info: SCNB (VDW SCALING)     2
Info: USING ARITHMETIC MEAN TO COMBINE L-J SIGMA PARAMETERS
Info: SUMMARY OF PARAMETERS:
Info: 71 BONDS
Info: 145 ANGLES
Info: 76 DIHEDRAL
Info: 0 IMPROPER
Info: 0 CROSSTERM
Info: 0 VDW
Info: 190 VDW_PAIRS
Info: 0 NBTHOLE_PAIRS
Info: STRUCTURE SUMMARY:
Info: 49394 ATOMS
Info: 49448 BONDS
Info: 8698 ANGLES
Info: 18780 DIHEDRALS
Info: 0 IMPROPERS
Info: 0 CROSSTERMS
Info: 0 EXCLUSIONS
Info: 2336 CONSTRAINTS
Info: 44667 RIGID BONDS
Info: 103515 DEGREES OF FREEDOM
Info: 17225 HYDROGEN GROUPS
Info: 4 ATOMS IN LARGEST HYDROGEN GROUP
Info: 17225 MIGRATION GROUPS
Info: 4 ATOMS IN LARGEST MIGRATION GROUP
Info: TOTAL MASS = 301478 amu
Info: TOTAL CHARGE = 1.00115e-05 e
Info: MASS DENSITY = 0.935846 g/cm^3
Info: ATOM DENSITY = 0.0923345 atoms/A^3
Info: ADDED 70656 IMPLICIT EXCLUSIONS
Info: NONBONDED TABLE R-SQUARED SPACING: 0.0625
Info: NONBONDED TABLE SIZE: 769 POINTS
Info: REMOVING COM VELOCITY 0.0308142 0.0068535 0.0251491
TCL: Running for 5000 steps
ETITLE: TS BOND ANGLE DIHED IMPRP ELECT VDW BOUNDARY MISC KINETIC TOTAL TEMP POTENTIAL TOTAL3 TEMPAVG PRESSURE GPRESSURE VOLUME PRESSAVG GPRESSAVG
ENERGY: 0 385.7124 1202.9821 2900.7817 0.0000 -212561.5472 29499.5187 0.0000 0.0000 9994.1938 -168578.3585 97.1706 -178572.5523 -168568.7822 97.1706 -2380.7528 -2478.8537 534946.2959 -2380.7528 -2478.8537
ENERGY: 1000 1253.8039 1985.8623 3103.2712 0.0000 -193208.8691 26119.5335 817.3677 0.0000 24185.9101 -135743.1205 235.1525 -159929.0306 -135718.3003 218.6354 -136.6772 -78.4936 521826.9245 -7.7608 -7.3744
ENERGY: 2000 1511.2732 2126.5542 3134.6800 0.0000 -184038.3448 23306.8961 784.1768 0.0000 28075.8975 -125098.8670 272.9737 -153174.7644 -125064.7446 265.4010 -43.3574 -12.5473 516608.8720 -17.8676 -17.7892
ENERGY: 3000 1537.4637 2251.4807 3136.2491 0.0000 -178911.9189 21656.9585 797.5059 0.0000 29698.1598 -119834.1011 288.7464 -149532.2609 -119795.6754 285.7509 -50.3129 3.6915 511909.6972 -13.2563 -13.1315
ENERGY: 4000 1577.4135 2215.0629 3147.3000 0.0000 -176717.4793 20732.3688 814.6106 0.0000 30220.7134 -118010.0099 293.8271 -148230.7233 -117946.7154 294.0892 -49.7367 -26.9103 508949.5937 -5.8682 -6.0686
ENERGY: 5000 1630.1483 2338.9858 3136.8348 0.0000 -176124.8780 20544.4259 823.5450 0.0000 30700.7079 -116950.2302 298.4939 -147650.9381 -116906.4335 297.9525 -6.9874 3.9136 505000.4195 -18.1020 -18.0460
TCL: Setting parameter constraintScaling to 5.0
TCL: Running for 5000 steps
ETITLE: TS BOND ANGLE DIHED IMPRP ELECT VDW BOUNDARY MISC KINETIC TOTAL TEMP POTENTIAL TOTAL3 TEMPAVG PRESSURE GPRESSURE VOLUME PRESSAVG GPRESSAVG
ENERGY: 5000 1630.1483 2338.9858 3136.8348 0.0000 -176124.8780 20544.4259 411.7725 0.0000 30698.6635 -117364.0471 298.4740 -148062.7106 -117321.5200 298.4740 -48.1667 -51.8147 505000.4195 -48.1667 -51.8147
ENERGY: 6000 1678.3290 2309.0686 3173.6141 0.0000 -175474.6193 20062.2492 661.7561 0.0000 30794.4122 -116795.1902 299.4050 -147589.6024 -116758.2450 299.2758 -113.4398 -49.8816 504822.3739 -5.8932 -5.9630
ENERGY: 7000 1644.0168 2314.5377 3170.7776 0.0000 -175938.8163 20343.3794 619.4623 0.0000 30830.2852 -117016.3573 299.7538 -147846.6426 -116968.2133 298.9438 -144.3789 -6.4178 504488.3943 4.1051 4.5186
ENERGY: 8000 1579.4434 2324.5036 3179.1585 0.0000 -175462.0603 20191.3040 639.5454 0.0000 30753.5857 -116794.5198 299.0080 -147548.1055 -116752.5581 299.4182 13.9479 31.0841 503726.7463 -7.9292 -7.9686
ENERGY: 9000 1624.1407 2298.7200 3140.5934 0.0000 -175412.8732 20229.4896 623.7142 0.0000 30858.3671 -116637.8483 300.0268 -147496.2154 -116595.2151 300.8249 20.1289 59.1590 501555.7614 -9.8264 -10.8693
ENERGY: 10000 1628.9154 2273.3395 3161.2827 0.0000 -175476.3467 20182.2226 630.2041 0.0000 30836.1017 -116764.2806 299.8103 -147600.3824 -116721.2316 299.6665 -11.9885 24.2911 502571.6868 10.7722 10.8198
TCL: Setting parameter constraintScaling to 2.5
TCL: Running for 5000 steps
ETITLE: TS BOND ANGLE DIHED IMPRP ELECT VDW BOUNDARY MISC KINETIC TOTAL TEMP POTENTIAL TOTAL3 TEMPAVG PRESSURE GPRESSURE VOLUME PRESSAVG GPRESSAVG
ENERGY: 10000 1628.9154 2273.3395 3161.2827 0.0000 -175476.3467 20182.2226 315.1021 0.0000 30834.0333 -117081.4512 299.7902 -147915.4844 -117039.7370 299.7902 -34.1730 13.5031 502571.6868 -34.1730 13.5031
ENERGY: 11000 1574.8052 2328.2341 3183.6423 0.0000 -175652.0082 20321.3590 515.8348 0.0000 30653.4447 -117074.6881 298.0344 -147728.1328 -117033.1321 299.1211 51.6138 13.5646 500429.6402 -9.6787 -9.2614
ENERGY: 12000 1619.9203 2341.8407 3165.2072 0.0000 -175303.5569 20114.7558 511.9571 0.0000 30986.7930 -116563.0828 301.2754 -147549.8758 -116516.4139 300.2486 -9.1171 17.8201 501611.2435 3.0785 2.8210
ENERGY: 13000 1621.2977 2392.8689 3158.1504 0.0000 -175297.0514 20004.9450 526.9780 0.0000 30939.3528 -116653.4586 300.8142 -147592.8114 -116608.1955 301.5129 75.4383 77.5313 499399.4455 -6.2536 -6.0347
ENERGY: 14000 1600.0465 2378.2538 3169.6563 0.0000 -175235.0027 19852.8034 522.0950 0.0000 30811.3136 -116900.8341 299.5693 -147712.1477 -116863.3732 300.4392 -68.0522 9.9057 500452.3126 -5.6043 -5.5343
ENERGY: 15000 1563.9861 2297.4204 3191.6493 0.0000 -174995.3719 19944.7639 501.6894 0.0000 30914.2621 -116581.6007 300.5702 -147495.8628 -116537.4818 300.2540 26.4762 30.1021 501430.5365 10.9836 10.7490
TCL: Setting parameter constraintScaling to 1.25
TCL: Running for 5000 steps
ETITLE: TS BOND ANGLE DIHED IMPRP ELECT VDW BOUNDARY MISC KINETIC TOTAL TEMP POTENTIAL TOTAL3 TEMPAVG PRESSURE GPRESSURE VOLUME PRESSAVG GPRESSAVG
ENERGY: 15000 1563.9861 2297.4204 3191.6493 0.0000 -174995.3719 19944.7639 250.8447 0.0000 30912.1967 -116834.5108 300.5502 -147746.7075 -116791.2490 300.5502 2.8047 7.2346 501430.5365 2.8047 7.2346
ENERGY: 16000 1586.0033 2357.6355 3199.3939 0.0000 -175658.1282 20057.4333 419.6071 0.0000 30873.6787 -117164.3764 300.1757 -148038.0552 -117123.5871 299.5125 22.0120 -15.2765 500463.3905 -9.1477 -8.8283
ENERGY: 17000 1593.5418 2350.1148 3165.9967 0.0000 -175448.6080 20109.0460 439.9745 0.0000 30772.9513 -117016.9829 299.1963 -147789.9342 -116964.1976 299.7201 -57.1568 11.9436 500613.0287 4.7979 4.9586
ENERGY: 18000 1662.9732 2379.8239 3188.7154 0.0000 -175798.5556 20102.8237 402.2511 0.0000 30772.9445 -117289.0239 299.1963 -148061.9684 -117249.2838 299.1212 -33.6473 32.8131 499282.7563 -8.1413 -7.5134
ENERGY: 19000 1566.3640 2415.5990 3171.5205 0.0000 -175816.6926 20035.3847 406.4786 0.0000 30686.8827 -117534.4630 298.3595 -148221.3457 -117484.9037 298.7466 -17.3184 29.9797 498700.4967 -4.3273 -4.7685
ENERGY: 20000 1644.5877 2430.5078 3138.6735 0.0000 -176079.0792 20271.0646 405.8135 0.0000 30848.2333 -117340.1988 299.9283 -148188.4321 -117298.0551 299.8759 73.0079 33.4916 499322.6388 -6.9719 -7.0994
TCL: Setting parameter constraintScaling to 0.625
TCL: Running for 5000 steps
ETITLE: TS BOND ANGLE DIHED IMPRP ELECT VDW BOUNDARY MISC KINETIC TOTAL TEMP POTENTIAL TOTAL3 TEMPAVG PRESSURE GPRESSURE VOLUME PRESSAVG GPRESSAVG
ENERGY: 20000 1644.5877 2430.5078 3138.6735 0.0000 -176079.0792 20271.0646 202.9067 0.0000 30846.1914 -117545.1474 299.9084 -148391.3388 -117504.0898 299.9084 109.9162 70.9661 499322.6388 109.9162 70.9661
ENERGY: 21000 1643.3860 2385.4876 3198.0251 0.0000 -175753.7676 20113.2824 318.5033 0.0000 30924.4680 -117170.6153 300.6695 -148095.0832 -117129.2485 299.6044 -28.1011 -2.4010 498807.2275 -15.5683 -15.7915
ENERGY: 22000 1636.6464 2409.8790 3202.3307 0.0000 -175701.2754 20124.5006 317.9778 0.0000 30980.4537 -117029.4872 301.2138 -148009.9409 -116989.3908 299.8860 46.2825 40.3445 498855.7471 -3.3935 -3.6911
ENERGY: 23000 1686.2454 2394.1741 3190.1842 0.0000 -176052.3729 20070.3197 327.9934 0.0000 30762.4565 -117620.9997 299.0943 -148383.4562 -117575.4712 298.8451 81.5329 6.7020 498522.7553 -3.7060 -3.2354
ENERGY: 24000 1632.2029 2404.8251 3207.6565 0.0000 -175859.4028 20351.9007 335.3694 0.0000 30668.1279 -117259.3203 298.1772 -147927.4481 -117221.0391 299.8660 28.4530 3.5051 498559.9256 -0.8712 -1.5086
ENERGY: 25000 1603.5424 2470.8885 3217.0804 0.0000 -175408.0586 19906.7206 319.0141 0.0000 30826.0257 -117064.7870 299.7123 -147890.8127 -117023.7764 299.7993 -24.0141 -20.2201 499306.1927 5.3810 4.9610
TCL: Setting parameter constraintScaling to 0.3125
TCL: Running for 5000 steps
ETITLE: TS BOND ANGLE DIHED IMPRP ELECT VDW BOUNDARY MISC KINETIC TOTAL TEMP POTENTIAL TOTAL3 TEMPAVG PRESSURE GPRESSURE VOLUME PRESSAVG GPRESSAVG
ENERGY: 25000 1603.5424 2470.8885 3217.0804 0.0000 -175408.0586 19906.7206 159.5071 0.0000 30824.0063 -117226.3135 299.6927 -148050.3197 -117183.8464 299.6927 -78.8620 -71.4729 499306.1927 -78.8620 -71.4729
ENERGY: 26000 1600.2501 2451.7690 3185.6679 0.0000 -175730.6191 20092.0446 243.4843 0.0000 30754.9094 -117402.4937 299.0209 -148157.4032 -117360.4375 299.6336 -37.6103 -28.2579 499197.9217 -5.0188 -5.3104
ENERGY: 27000 1659.0891 2380.7563 3193.4493 0.0000 -175786.2744 20436.8954 252.8130 0.0000 30717.7025 -117145.5687 298.6592 -147863.2711 -117091.4766 300.2049 38.0424 37.0051 499724.6490 12.2173 12.0484
ENERGY: 28000 1669.3070 2416.1898 3215.3989 0.0000 -175951.2790 20228.8738 249.6509 0.0000 30738.1233 -117433.7353 298.8577 -148171.8586 -117390.9927 300.0003 19.5165 -6.3766 499262.8760 -4.6608 -4.9059
ENERGY: 29000 1621.6939 2381.8366 3213.2382 0.0000 -175469.1673 20006.5955 256.5750 0.0000 30802.1701 -117187.0580 299.4804 -147989.2281 -117147.4820 300.0881 -3.1751 32.9100 498697.6490 0.7066 0.8649
ENERGY: 30000 1625.5578 2391.9587 3208.6213 0.0000 -176049.9087 20212.2417 257.2772 0.0000 31055.2846 -117298.9675 301.9414 -148354.2521 -117253.7937 300.2198 41.6991 29.3978 499489.4206 3.6765 4.1310
TCL: Setting parameter constraintScaling to 0.15625
TCL: Running for 5000 steps
ETITLE: TS BOND ANGLE DIHED IMPRP ELECT VDW BOUNDARY MISC KINETIC TOTAL TEMP POTENTIAL TOTAL3 TEMPAVG PRESSURE GPRESSURE VOLUME PRESSAVG GPRESSAVG
ENERGY: 30000 1625.5578 2391.9587 3208.6213 0.0000 -176049.9087 20212.2417 128.6386 0.0000 31053.2102 -117429.6805 301.9212 -148482.8907 -117382.3002 301.9212 36.8298 19.4680 499489.4206 36.8298 19.4680
ENERGY: 31000 1672.9411 2417.5742 3239.5733 0.0000 -176014.4419 20192.9477 201.2751 0.0000 31019.9339 -117270.1965 301.5977 -148290.1304 -117221.2916 300.6051 -96.2671 -21.1824 498388.3153 6.5229 6.1038
ENERGY: 32000 1655.2980 2432.2848 3193.8228 0.0000 -175620.0223 20093.1971 209.5078 0.0000 30631.9537 -117403.9581 297.8254 -148035.9118 -117358.8779 300.3647 -45.5165 78.6475 497846.7898 -3.9852 -4.1521
ENERGY: 33000 1639.8915 2369.2162 3231.0881 0.0000 -175681.4736 19848.0280 214.8830 0.0000 30747.5568 -117630.8100 298.9494 -148378.3667 -117580.5423 299.3081 -206.0641 -121.3201 498481.8351 10.3266 9.9525
ENERGY: 34000 1662.8576 2429.5658 3183.0253 0.0000 -175840.5336 20045.8062 200.8047 0.0000 30668.1394 -117650.3346 298.1773 -148318.4740 -117610.8350 300.2288 -54.7874 -49.6030 496914.9849 -5.0634 -5.1421
ENERGY: 35000 1567.4034 2414.7589 3198.7862 0.0000 -176143.7661 20230.4781 213.5443 0.0000 30654.5497 -117864.2455 298.0451 -148518.7952 -117818.3342 299.4052 41.2209 64.6728 497434.3908 4.1775 3.8918
TCL: Setting parameter constraintScaling to 0.078125
TCL: Running for 5000 steps
ETITLE: TS BOND ANGLE DIHED IMPRP ELECT VDW BOUNDARY MISC KINETIC TOTAL TEMP POTENTIAL TOTAL3 TEMPAVG PRESSURE GPRESSURE VOLUME PRESSAVG GPRESSAVG
ENERGY: 35000 1567.4034 2414.7589 3198.7862 0.0000 -176143.7661 20230.4781 106.7722 0.0000 30652.5258 -117973.0415 298.0255 -148625.5673 -117929.6102 298.0255 25.4397 42.3339 497434.3908 25.4397 42.3339
ENERGY: 36000 1609.9680 2442.7558 3212.8838 0.0000 -176332.2959 20124.2629 147.8381 0.0000 30795.2472 -117999.3401 299.4131 -148794.5873 -117962.0925 298.7654 -141.2311 -58.1198 496285.0772 8.7017 9.2886
ENERGY: 37000 1588.0460 2432.5807 3214.8642 0.0000 -175748.0740 19965.6651 153.4834 0.0000 30567.8856 -117825.5490 297.2025 -148393.4346 -117772.4309 298.7603 148.8335 106.8592 496131.7579 7.2615 6.7013
ENERGY: 38000 1640.5122 2404.1407 3208.7160 0.0000 -175887.0190 20178.6492 160.7615 0.0000 30619.5822 -117674.6572 297.7052 -148294.2393 -117632.3685 300.5102 114.9404 65.1212 496721.3677 -1.4888 -1.7642
ENERGY: 39000 1648.7229 2375.5480 3222.5852 0.0000 -176193.5525 20087.6698 178.5823 0.0000 31008.4766 -117671.9676 301.4863 -148680.4442 -117621.9846 300.0289 -170.9054 -149.1785 496521.6612 4.4364 3.9650
ENERGY: 40000 1651.4061 2394.0908 3208.4511 0.0000 -176069.1323 20099.3546 163.2701 0.0000 30768.1844 -117784.3753 299.1500 -148552.5597 -117738.4502 298.9064 -37.8186 -52.0492 497265.7998 -1.0633 -0.9031
TCL: Setting parameter constraintScaling to 0.0390625
TCL: Running for 5000 steps
ETITLE: TS BOND ANGLE DIHED IMPRP ELECT VDW BOUNDARY MISC KINETIC TOTAL TEMP POTENTIAL TOTAL3 TEMPAVG PRESSURE GPRESSURE VOLUME PRESSAVG GPRESSAVG
ENERGY: 40000 1651.4061 2394.0908 3208.4511 0.0000 -176069.1323 20099.3546 81.6351 0.0000 30766.1471 -117868.0477 299.1302 -148634.1947 -117824.6423 299.1302 -65.3014 -74.1556 497265.7998 -65.3014 -74.1556
ENERGY: 41000 1680.4829 2387.8199 3236.6873 0.0000 -175794.3284 20009.1446 127.4118 0.0000 30948.5507 -117404.2313 300.9036 -148352.7820 -117348.6440 300.1176 88.7859 59.4822 495955.7375 -2.7621 -2.8930
ENERGY: 42000 1630.9883 2390.7758 3231.1019 0.0000 -175984.8503 20054.3087 116.4648 0.0000 30646.9972 -117914.2136 297.9717 -148561.2108 -117858.3783 298.3544 -176.3502 -65.4483 496554.9534 3.5349 4.0257
ENERGY: 43000 1598.0387 2392.7398 3204.3609 0.0000 -175470.3360 19800.6525 134.4394 0.0000 30747.4305 -117592.6741 298.9482 -148340.1046 -117546.8325 299.2036 -57.4196 4.8133 496307.9486 0.5902 0.1891
ENERGY: 44000 1646.7828 2356.4701 3183.4567 0.0000 -175638.4287 19980.3147 128.9559 0.0000 30786.9046 -117555.5439 299.3320 -148342.4485 -117514.9896 299.8266 -79.7483 -79.7343 499321.6619 19.7511 20.1916
ENERGY: 45000 1626.3063 2306.9511 3183.6296 0.0000 -175904.8832 20129.2272 135.1954 0.0000 30623.0460 -117900.5276 297.7388 -148523.5736 -117847.0683 299.0349 132.2067 109.4209 498014.5218 1.8605 1.6900
TCL: Setting parameter constraintScaling to 0.01953125
TCL: Running for 5000 steps
ETITLE: TS BOND ANGLE DIHED IMPRP ELECT VDW BOUNDARY MISC KINETIC TOTAL TEMP POTENTIAL TOTAL3 TEMPAVG PRESSURE GPRESSURE VOLUME PRESSAVG GPRESSAVG
ENERGY: 45000 1626.3063 2306.9511 3183.6296 0.0000 -175904.8832 20129.2272 67.5977 0.0000 30620.9948 -117970.1765 297.7189 -148591.1713 -117921.9965 297.7189 101.9558 81.2176 498014.5218 101.9558 81.2176
ENERGY: 46000 1582.4666 2427.8208 3195.5902 0.0000 -175830.1880 19907.8244 85.9793 0.0000 30988.0841 -117642.4226 301.2880 -148630.5067 -117591.8117 299.6027 -143.4548 -68.2169 498674.1492 12.6371 12.1651
ENERGY: 47000 1601.1829 2389.1563 3215.6754 0.0000 -175641.2646 19827.7477 93.6292 0.0000 30870.4072 -117643.4659 300.1439 -148513.8731 -117593.8959 299.6170 105.5352 60.7524 497116.0589 -4.1157 -4.8272
ENERGY: 48000 1624.1266 2426.1094 3235.9436 0.0000 -175641.7805 19882.8684 94.3098 0.0000 30803.5963 -117574.8264 299.4943 -148378.4226 -117538.2765 300.3635 87.3931 -19.0258 496155.2609 -7.6185 -7.3604
ENERGY: 49000 1661.3471 2419.9044 3241.9233 0.0000 -176008.8357 20272.4046 90.2987 0.0000 30808.4267 -117514.5309 299.5412 -148322.9576 -117468.7869 300.8946 94.8717 114.8781 497389.8301 6.4077 6.3392
ENERGY: 50000 1678.7517 2369.4209 3209.2195 0.0000 -175847.2481 19993.2037 91.3074 0.0000 31035.9357 -117469.4092 301.7532 -148505.3449 -117426.9268 300.5249 -58.8992 6.6106 496849.4930 -1.8505 -1.6110
TCL: Setting parameter constraintScaling to 0
TCL: Running for 5000 steps
ETITLE: TS BOND ANGLE DIHED IMPRP ELECT VDW BOUNDARY MISC KINETIC TOTAL TEMP POTENTIAL TOTAL3 TEMPAVG PRESSURE GPRESSURE VOLUME PRESSAVG GPRESSAVG
ENERGY: 50000 1678.7517 2369.4209 3209.2195 0.0000 -175847.2481 19993.2037 0.0000 0.0000 31033.8657 -117562.7866 301.7331 -148596.6523 -117517.8802 301.7331 -65.5426 -8.2412 496849.4930 -65.5426 -8.2412
ENERGY: 51000 1633.7176 2434.4329 3238.7361 0.0000 -175699.4990 19864.1362 0.0000 0.0000 30806.6981 -117721.7780 299.5244 -148528.4761 -117676.5691 300.3047 -24.3140 -22.6853 495288.8590 -13.2597 -13.2074
ENERGY: 52000 1664.9770 2406.6013 3239.7413 0.0000 -175781.0758 20115.5656 0.0000 0.0000 30928.1248 -117426.0658 300.7050 -148354.1905 -117387.4058 300.4145 59.2334 60.8751 496866.1700 3.7085 4.1427
ENERGY: 53000 1624.9336 2397.1346 3228.6963 0.0000 -175797.1804 19946.4252 0.0000 0.0000 30923.9517 -117676.0390 300.6645 -148599.9907 -117625.5916 300.6010 40.3261 47.2778 497262.1274 7.2013 7.5425
ENERGY: 54000 1703.9338 2388.0443 3227.9420 0.0000 -175518.5454 19862.2927 0.0000 0.0000 30734.5591 -117601.7736 298.8230 -148336.3327 -117554.9624 299.3965 -129.3106 -60.2182 497844.4222 -6.8708 -6.6847
ENERGY: 55000 1594.0058 2523.7625 3233.6226 0.0000 -175686.4542 19919.6206 0.0000 0.0000 30844.7718 -117570.6710 299.8946 -148415.4427 -117524.6648 299.9206 -82.5584 -80.7477 496912.9832 -6.4400 -6.2759
