Info: SIMULATION PARAMETERS:
Info: TIMESTEP               2
Info: NUMBER OF STEPS        0
Info: STEPS PER CYCLE        10
Info: PERIODIC CELL BASIS 1  72.449 0 0
Info: PERIODIC CELL BASIS 2  0 93.247 0
Info: PERIODIC CELL BASIS 3  0 0 79.185
Info: PERIODIC CELL CENTER   -0.248 -0.156 -0.047
Info: WRAPPING WATERS AROUND PERIODIC BOUNDARIES ON OUTPUT.
Info: WRAPPING ALL CLUSTERS AROUND PERIODIC BOUNDARIES ON OUTPUT.
Info: FIRST LDB TIMESTEP     50
Info: LAST LDB TIMESTEP     -1
Info: HOM BACKGROUND SCALING 1
Info: PME BACKGROUND SCALING 1
Info: MIN ATOMS PER PATCH    40
Info: INITIAL TEMPERATURE    0
Info: CENTER OF MASS MOVING INITIALLY? NO
Info: DIELECTRIC             1
Info: EXCLUDE                SCALED ONE-FOUR
Info: 1-4 ELECTROSTATICS SCALED BY 0.833333
Info: MODIFIED 1-4 VDW PARAMETERS WILL BE USED
Info: NO DCD TRAJECTORY OUTPUT
Info: NO EXTENDED SYSTEM TRAJECTORY OUTPUT
Info: NO VELOCITY DCD OUTPUT
Info: NO FORCE DCD OUTPUT
Info: OUTPUT FILENAME        ../replicas/rep2/equilibration/eq0
Info: NO RESTART FILE
Info: SWITCHING ACTIVE
Info: SWITCHING ON           10
Info: SWITCHING OFF          12
Info: PAIRLIST DISTANCE      13.5
Info: PAIRLIST SHRINK RATE   0.01
Info: PAIRLIST GROW RATE     0.01
Info: PAIRLIST TRIGGER       0.3
Info: PAIRLISTS PER CYCLE    2
Info: PAIRLISTS ENABLED
Info: MARGIN                 0
Info: HYDROGEN GROUP CUTOFF  2.5
Info: PATCH DIMENSION        16
Info: ENERGY OUTPUT STEPS    500
Info: CROSSTERM ENERGY INCLUDED IN DIHEDRAL
Info: TIMING OUTPUT STEPS    5000
Info: PRESSURE OUTPUT STEPS  500
Info: HARMONIC CONSTRAINTS ACTIVE
Info: HARMONIC CONS EXP      2
Info: HARMONIC CONS SCALING  10
Info: CONJUGATE GRADIENT MINIMIZATION ACTIVE
Info: LINE MINIMIZATION GOAL = 0.001
Info: BABY STEP SIZE = 0.01
Info: TINY STEP SIZE = 1e-06
Info: PARTICLE MESH EWALD (PME) ACTIVE
Info: PME TOLERANCE               1e-06
Info: PME EWALD COEFFICIENT       0.257952
Info: PME INTERPOLATION ORDER     4
Info: PME GRID DIMENSIONS         80 96 80
Info: PME MAXIMUM GRID SPACING    1
Info: FULL ELECTROSTATIC EVALUATION FREQUENCY      2
Info: USING VERLET I (r-RESPA) MTS SCHEME.
Info: C1 SPLITTING OF LONG RANGE ELECTROSTATICS
Info: PLACING ATOMS IN PATCHES BY HYDROGEN GROUPS
Info: RIGID BONDS TO HYDROGEN : ALL
Info:         ERROR TOLERANCE : 1e-05
Info:          MAX ITERATIONS : 100
Info: RIGID WATER USING SETTLE ALGORITHM
Info: RANDOM NUMBER SEED     1503691275
Info: USE HYDROGEN BONDS?    NO
Info: Using AMBER format force field!
Info: AMBER PARM FILE        ../build/complex.top
Info: COORDINATE PDB         ../build/complex.pdb
Info: Exclusions in PARM file will be ignored!
Info: SCNB (VDW SCALING)     2
Info: USING ARITHMETIC MEAN TO COMBINE L-J SIGMA PARAMETERS
Info: SUMMARY OF PARAMETERS:
Info: 71 BONDS
Info: 145 ANGLES
Info: 76 DIHEDRAL
Info: 0 IMPROPER
Info: 0 CROSSTERM
Info: 0 VDW
Info: 190 VDW_PAIRS
Info: 0 NBTHOLE_PAIRS
Info: STRUCTURE SUMMARY:
Info: 49394 ATOMS
Info: 49448 BONDS
Info: 8698 ANGLES
Info: 18780 DIHEDRALS
Info: 0 IMPROPERS
Info: 0 CROSSTERMS
Info: 0 EXCLUSIONS
Info: 2336 CONSTRAINTS
Info: 47058 RIGID BONDS
Info: 101124 DEGREES OF FREEDOM
Info: 17225 HYDROGEN GROUPS
Info: 4 ATOMS IN LARGEST HYDROGEN GROUP
Info: 17225 MIGRATION GROUPS
Info: 4 ATOMS IN LARGEST MIGRATION GROUP
Info: TOTAL MASS = 301478 amu
Info: TOTAL CHARGE = 1.00115e-05 e
Info: MASS DENSITY = 0.935846 g/cm^3
Info: ATOM DENSITY = 0.0923345 atoms/A^3
Info: ADDED 70656 IMPLICIT EXCLUSIONS
Info: NONBONDED TABLE R-SQUARED SPACING: 0.0625
Info: NONBONDED TABLE SIZE: 769 POINTS
Info: REMOVING COM VELOCITY 0 0 0
TCL: Minimizing for 100 steps
ETITLE: TS BOND ANGLE DIHED IMPRP ELECT VDW BOUNDARY MISC KINETIC TOTAL TEMP POTENTIAL TOTAL3 TEMPAVG PRESSURE GPRESSURE VOLUME PRESSAVG GPRESSAVG
ENERGY: 0 155.4176 1012.2698 2855.7272 0.0000 -154496.7912 207729.2052 0.0468 0.0000 0.0000 57255.8754 0.0000 57255.8754 57255.8754 0.0000 116350.2532 86546.1670 534946.2959 116350.2532 86546.1670
ENERGY: 20 304.7541 935.7911 2893.4663 0.0000 -158672.9400 17936.6598 143.9454 0.0000 0.0000 -136458.3233 0.0000 -136458.3233 -136458.3233 0.0000 16523.9391 -239.4554 534946.2959 16523.9391 -239.4554
ENERGY: 40 198.7427 799.5725 2896.9273 0.0000 -162811.4538 16417.9535 221.3029 0.0000 0.0000 -142276.9548 0.0000 -142276.9548 -142276.9548 0.0000 15011.2702 -2135.4699 534946.2959 15011.2702 -2135.4699
ENERGY: 60 130.5284 715.3440 2898.2166 0.0000 -167496.1559 15446.7541 315.2796 0.0000 0.0000 -147990.0332 0.0000 -147990.0332 -147990.0332 0.0000 13793.8840 -3799.3983 534946.2959 13793.8840 -3799.3983
ENERGY: 80 431.2742 765.6311 2904.3784 0.0000 -169937.5208 15121.1534 372.0120 0.0000 0.0000 -150343.0717 0.0000 -150343.0717 -150343.0717 0.0000 13270.3328 -4577.2423 534946.2959 13270.3328 -4577.2423
ENERGY: 100 119.3889 710.0604 2905.2589 0.0000 -171259.7196 14991.7862 387.3613 0.0000 0.0000 -152145.8639 0.0000 -152145.8639 -152145.8639 0.0000 13056.2640 -4908.1749 534946.2959 13056.2640 -4908.1749
TCL: Setting parameter constraintScaling to 5.0
TCL: Minimizing for 100 steps
ETITLE: TS BOND ANGLE DIHED IMPRP ELECT VDW BOUNDARY MISC KINETIC TOTAL TEMP POTENTIAL TOTAL3 TEMPAVG PRESSURE GPRESSURE VOLUME PRESSAVG GPRESSAVG
ENERGY: 100 119.3889 710.0604 2905.2589 0.0000 -171259.7196 14991.7862 193.6807 0.0000 0.0000 -152339.5446 0.0000 -152339.5446 -152339.5446 0.0000 13672.7702 -23021.8210 534946.2959 13672.7702 -23021.8210
ENERGY: 120 108.8903 687.5870 2912.9270 0.0000 -172865.8723 14798.2710 281.1917 0.0000 0.0000 -154077.0052 0.0000 -154077.0052 -154077.0052 0.0000 13218.2556 -4906.0143 534946.2959 13218.2556 -4906.0143
ENERGY: 140 309.5468 708.8885 2913.8027 0.0000 -174236.4215 14731.4948 326.6321 0.0000 0.0000 -155246.0566 0.0000 -155246.0566 -155246.0566 0.0000 12971.5509 -5303.1875 534946.2959 12971.5509 -5303.1875
ENERGY: 160 264.6611 682.9463 2923.1407 0.0000 -176271.9479 14757.1351 382.7629 0.0000 0.0000 -157261.3018 0.0000 -157261.3018 -157261.3018 0.0000 12741.3879 -5742.4145 534946.2959 12741.3879 -5742.4145
ENERGY: 180 269.2665 744.0858 2928.5663 0.0000 -178992.6998 15023.0617 473.1615 0.0000 0.0000 -159554.5581 0.0000 -159554.5581 -159554.5581 0.0000 12521.7487 -6223.6290 534946.2959 12521.7487 -6223.6290
ENERGY: 200 238.5148 694.1368 2941.3383 0.0000 -181554.3776 15586.6139 546.2306 0.0000 0.0000 -161547.5432 0.0000 -161547.5432 -161547.5432 0.0000 12582.6208 -6424.6718 534946.2959 12582.6208 -6424.6718
TCL: Setting parameter constraintScaling to 2.5
TCL: Minimizing for 100 steps
ETITLE: TS BOND ANGLE DIHED IMPRP ELECT VDW BOUNDARY MISC KINETIC TOTAL TEMP POTENTIAL TOTAL3 TEMPAVG PRESSURE GPRESSURE VOLUME PRESSAVG GPRESSAVG
ENERGY: 200 238.5148 694.1368 2941.3383 0.0000 -181554.3777 15586.6139 273.1153 0.0000 0.0000 -161820.6585 0.0000 -161820.6585 -161820.6585 0.0000 13229.4823 -25655.3246 534946.2959 13229.4823 -25655.3246
ENERGY: 220 246.1018 677.7017 2933.0030 0.0000 -182075.4635 15471.3068 337.7444 0.0000 0.0000 -162409.6057 0.0000 -162409.6057 -162409.6057 0.0000 12971.0993 -6090.8544 534946.2959 12971.0993 -6090.8544
ENERGY: 240 115.5848 674.1424 2928.4182 0.0000 -182571.3962 15510.3904 345.0711 0.0000 0.0000 -162997.7892 0.0000 -162997.7892 -162997.7892 0.0000 13036.1490 -6117.4692 534946.2959 13036.1490 -6117.4692
ENERGY: 260 144.8232 675.4432 2920.9155 0.0000 -184110.0183 15840.7253 391.1959 0.0000 0.0000 -164136.9151 0.0000 -164136.9151 -164136.9151 0.0000 13045.5396 -6256.3709 534946.2959 13045.5396 -6256.3709
ENERGY: 280 172.5120 700.7230 2917.6901 0.0000 -185424.9399 16230.4848 454.4250 0.0000 0.0000 -164949.1049 0.0000 -164949.1049 -164949.1049 0.0000 13144.9730 -6337.2599 534946.2959 13144.9730 -6337.2599
ENERGY: 300 139.0022 653.4384 2920.1413 0.0000 -186825.6399 16739.7012 524.8442 0.0000 0.0000 -165848.5126 0.0000 -165848.5126 -165848.5126 0.0000 13277.2595 -6344.2445 534946.2959 13277.2595 -6344.2445
TCL: Setting parameter constraintScaling to 1.25
TCL: Minimizing for 100 steps
ETITLE: TS BOND ANGLE DIHED IMPRP ELECT VDW BOUNDARY MISC KINETIC TOTAL TEMP POTENTIAL TOTAL3 TEMPAVG PRESSURE GPRESSURE VOLUME PRESSAVG GPRESSAVG
ENERGY: 300 139.0022 653.4384 2920.1413 0.0000 -186825.6399 16739.7012 262.4221 0.0000 0.0000 -166110.9347 0.0000 -166110.9347 -166110.9347 0.0000 13744.0947 -26439.1798 534946.2959 13744.0947 -26439.1798
ENERGY: 320 151.7800 678.9410 2906.0406 0.0000 -187661.8906 16959.9828 297.4900 0.0000 0.0000 -166667.6562 0.0000 -166667.6562 -166667.6562 0.0000 13755.6905 -5949.4856 534946.2959 13755.6905 -5949.4856
ENERGY: 340 233.7218 670.0571 2920.1140 0.0000 -188534.0383 17229.1945 336.8378 0.0000 0.0000 -167144.1131 0.0000 -167144.1131 -167144.1131 0.0000 13788.1871 -6006.2317 534946.2959 13788.1871 -6006.2317
ENERGY: 360 166.0973 647.6715 2907.1168 0.0000 -189021.5675 17398.5731 343.3886 0.0000 0.0000 -167558.7202 0.0000 -167558.7202 -167558.7202 0.0000 13916.6519 -5963.5340 534946.2959 13916.6519 -5963.5340
ENERGY: 380 213.7480 718.3359 2900.2445 0.0000 -190308.9332 17891.2527 371.6572 0.0000 0.0000 -168213.6949 0.0000 -168213.6949 -168213.6949 0.0000 14089.3266 -5914.2657 534946.2959 14089.3266 -5914.2657
ENERGY: 400 136.5100 633.6969 2902.4792 0.0000 -190467.4823 17900.2889 384.2902 0.0000 0.0000 -168510.2172 0.0000 -168510.2172 -168510.2172 0.0000 14090.3326 -5945.8083 534946.2959 14090.3326 -5945.8083
TCL: Setting parameter constraintScaling to 0.625
TCL: Minimizing for 100 steps
ETITLE: TS BOND ANGLE DIHED IMPRP ELECT VDW BOUNDARY MISC KINETIC TOTAL TEMP POTENTIAL TOTAL3 TEMPAVG PRESSURE GPRESSURE VOLUME PRESSAVG GPRESSAVG
ENERGY: 400 136.5100 633.6969 2902.4792 0.0000 -190467.4823 17900.2889 192.1451 0.0000 0.0000 -168702.3623 0.0000 -168702.3623 -168702.3623 0.0000 14384.7846 -26645.1782 534946.2959 14384.7846 -26645.1782
ENERGY: 420 246.6155 650.7717 2892.7776 0.0000 -191030.2990 18059.2542 218.7763 0.0000 0.0000 -168962.1037 0.0000 -168962.1037 -168962.1037 0.0000 14407.4214 -5699.2984 534946.2959 14407.4214 -5699.2984
ENERGY: 440 321.8725 689.1633 2902.4715 0.0000 -191537.7085 18227.6381 235.8725 0.0000 0.0000 -169160.6907 0.0000 -169160.6907 -169160.6907 0.0000 14370.2637 -5762.6181 534946.2959 14370.2637 -5762.6181
ENERGY: 460 157.4196 669.8656 2896.5510 0.0000 -192291.8695 18500.3082 258.5207 0.0000 0.0000 -169809.2044 0.0000 -169809.2044 -169809.2044 0.0000 14471.0557 -5746.0344 534946.2959 14471.0557 -5746.0344
ENERGY: 480 191.9938 656.8492 2881.3293 0.0000 -192628.2480 18628.0144 268.5596 0.0000 0.0000 -170001.5017 0.0000 -170001.5017 -170001.5017 0.0000 14536.0065 -5724.2096 534946.2959 14536.0065 -5724.2096
ENERGY: 500 158.7690 692.3730 2884.2874 0.0000 -194160.0493 19217.5775 306.8397 0.0000 0.0000 -170900.2027 0.0000 -170900.2027 -170900.2027 0.0000 14882.2344 -5582.6723 534946.2959 14882.2344 -5582.6723
TCL: Setting parameter constraintScaling to 0.3125
TCL: Minimizing for 100 steps
ETITLE: TS BOND ANGLE DIHED IMPRP ELECT VDW BOUNDARY MISC KINETIC TOTAL TEMP POTENTIAL TOTAL3 TEMPAVG PRESSURE GPRESSURE VOLUME PRESSAVG GPRESSAVG
ENERGY: 500 158.7690 692.3730 2884.2874 0.0000 -194160.0493 19217.5775 153.4199 0.0000 0.0000 -171053.6226 0.0000 -171053.6226 -171053.6226 0.0000 15077.1395 -26814.8147 534946.2959 15077.1395 -26814.8147
ENERGY: 520 155.1142 631.0391 2876.0613 0.0000 -194358.0118 19295.7700 156.3297 0.0000 0.0000 -171243.6974 0.0000 -171243.6974 -171243.6974 0.0000 15008.0274 -5436.7769 534946.2959 15008.0274 -5436.7769
ENERGY: 540 257.6043 658.3232 2875.7440 0.0000 -194993.9506 19510.6344 176.0615 0.0000 0.0000 -171515.5832 0.0000 -171515.5832 -171515.5832 0.0000 15074.2438 -5451.6970 534946.2959 15074.2438 -5451.6970
ENERGY: 560 164.0603 657.0122 2869.2075 0.0000 -195673.2537 19751.2078 194.7642 0.0000 0.0000 -172037.0018 0.0000 -172037.0018 -172037.0018 0.0000 15190.4408 -5420.5064 534946.2959 15190.4408 -5420.5064
ENERGY: 580 197.3887 672.8557 2874.8379 0.0000 -195962.4268 19876.7263 193.6802 0.0000 0.0000 -172146.9381 0.0000 -172146.9381 -172146.9381 0.0000 15277.1787 -5368.7532 534946.2959 15277.1787 -5368.7532
ENERGY: 600 196.1428 713.2325 2876.2784 0.0000 -196668.2798 20174.1547 201.1249 0.0000 0.0000 -172507.3465 0.0000 -172507.3465 -172507.3465 0.0000 15470.2513 -5276.3523 534946.2959 15470.2513 -5276.3523
TCL: Setting parameter constraintScaling to 0.15625
TCL: Minimizing for 100 steps
ETITLE: TS BOND ANGLE DIHED IMPRP ELECT VDW BOUNDARY MISC KINETIC TOTAL TEMP POTENTIAL TOTAL3 TEMPAVG PRESSURE GPRESSURE VOLUME PRESSAVG GPRESSAVG
ENERGY: 600 196.1428 713.2325 2876.2784 0.0000 -196668.2798 20174.1547 100.5624 0.0000 0.0000 -172607.9089 0.0000 -172607.9089 -172607.9089 0.0000 15586.2247 -26906.3399 534946.2959 15586.2247 -26906.3399
ENERGY: 620 152.8073 637.1790 2863.1270 0.0000 -196895.3663 20218.5609 108.3319 0.0000 0.0000 -172915.3602 0.0000 -172915.3602 -172915.3602 0.0000 15530.3620 -5225.1167 534946.2959 15530.3620 -5225.1167
ENERGY: 640 158.6730 656.5309 2861.0342 0.0000 -197428.7642 20412.2748 117.7129 0.0000 0.0000 -173222.5384 0.0000 -173222.5384 -173222.5384 0.0000 15638.7449 -5195.5268 534946.2959 15638.7449 -5195.5268
ENERGY: 660 231.2853 670.2108 2857.4746 0.0000 -198358.6320 20764.6026 134.1125 0.0000 0.0000 -173700.9462 0.0000 -173700.9462 -173700.9462 0.0000 15713.2925 -5207.9792 534946.2959 15713.2925 -5207.9792
ENERGY: 680 290.8997 735.6252 2858.0385 0.0000 -198575.6652 20858.4628 132.7706 0.0000 0.0000 -173699.8684 0.0000 -173699.8684 -173699.8684 0.0000 15861.0585 -5098.4243 534946.2959 15861.0585 -5098.4243
ENERGY: 700 177.7434 645.2019 2853.1864 0.0000 -198734.8348 20913.0807 134.6654 0.0000 0.0000 -174010.9570 0.0000 -174010.9570 -174010.9570 0.0000 15818.0547 -5141.1589 534946.2959 15818.0547 -5141.1589
TCL: Setting parameter constraintScaling to 0.078125
TCL: Minimizing for 100 steps
ETITLE: TS BOND ANGLE DIHED IMPRP ELECT VDW BOUNDARY MISC KINETIC TOTAL TEMP POTENTIAL TOTAL3 TEMPAVG PRESSURE GPRESSURE VOLUME PRESSAVG GPRESSAVG
ENERGY: 700 177.7434 645.2019 2853.1864 0.0000 -198734.8348 20913.0807 67.3327 0.0000 0.0000 -174078.2897 0.0000 -174078.2897 -174078.2897 0.0000 15886.9662 -27097.7123 534946.2959 15886.9662 -27097.7123
ENERGY: 720 162.1625 652.9371 2851.5747 0.0000 -198888.3482 20956.9848 69.5736 0.0000 0.0000 -174195.1155 0.0000 -174195.1155 -174195.1155 0.0000 15933.0357 -5058.1354 534946.2959 15933.0357 -5058.1354
ENERGY: 740 166.5845 657.3033 2845.5965 0.0000 -199498.3594 21175.0880 76.2314 0.0000 0.0000 -174577.5556 0.0000 -174577.5556 -174577.5556 0.0000 15995.1268 -5060.1463 534946.2959 15995.1268 -5060.1463
ENERGY: 760 184.0421 653.2865 2845.1544 0.0000 -199905.2410 21336.5640 78.0643 0.0000 0.0000 -174808.1297 0.0000 -174808.1297 -174808.1297 0.0000 16092.4159 -5011.2393 534946.2959 16092.4159 -5011.2393
ENERGY: 780 166.8882 664.5349 2841.5147 0.0000 -200096.7867 21396.9333 81.0093 0.0000 0.0000 -174945.9062 0.0000 -174945.9062 -174945.9062 0.0000 16102.4707 -5023.1096 534946.2959 16102.4707 -5023.1096
ENERGY: 800 184.2079 697.8592 2845.0411 0.0000 -200484.7427 21540.9418 85.2795 0.0000 0.0000 -175131.4131 0.0000 -175131.4131 -175131.4131 0.0000 16126.8427 -5035.1079 534946.2959 16126.8427 -5035.1079
TCL: Setting parameter constraintScaling to 0.0390625
TCL: Minimizing for 100 steps
ETITLE: TS BOND ANGLE DIHED IMPRP ELECT VDW BOUNDARY MISC KINETIC TOTAL TEMP POTENTIAL TOTAL3 TEMPAVG PRESSURE GPRESSURE VOLUME PRESSAVG GPRESSAVG
ENERGY: 800 184.2079 697.8592 2845.0411 0.0000 -200484.7427 21540.9418 42.6398 0.0000 0.0000 -175174.0529 0.0000 -175174.0529 -175174.0529 0.0000 16166.6579 -27228.3675 534946.2959 16166.6579 -27228.3675
ENERGY: 820 160.7991 647.9405 2837.5392 0.0000 -200568.3260 21575.2584 42.1497 0.0000 0.0000 -175304.6391 0.0000 -175304.6391 -175304.6391 0.0000 16255.1733 -4929.7246 534946.2959 16255.1733 -4929.7246
ENERGY: 840 161.7493 652.1130 2834.8840 0.0000 -200988.0185 21730.3041 44.5071 0.0000 0.0000 -175564.4610 0.0000 -175564.4610 -175564.4610 0.0000 16318.1336 -4914.5624 534946.2959 16318.1336 -4914.5624
ENERGY: 860 234.3048 683.1893 2831.5936 0.0000 -201766.2822 22040.7669 48.7618 0.0000 0.0000 -175927.6658 0.0000 -175927.6658 -175927.6658 0.0000 16466.4233 -4865.6737 534946.2959 16466.4233 -4865.6737
ENERGY: 880 200.8125 686.3041 2833.6350 0.0000 -202011.2770 22150.5418 49.2643 0.0000 0.0000 -176090.7193 0.0000 -176090.7193 -176090.7193 0.0000 16526.3053 -4829.4168 534946.2959 16526.3053 -4829.4168
ENERGY: 900 188.0739 678.6027 2828.3774 0.0000 -202414.5028 22316.5747 50.8924 0.0000 0.0000 -176351.9817 0.0000 -176351.9817 -176351.9817 0.0000 16618.0234 -4784.0044 534946.2959 16618.0234 -4784.0044
TCL: Setting parameter constraintScaling to 0.01953125
TCL: Minimizing for 100 steps
ETITLE: TS BOND ANGLE DIHED IMPRP ELECT VDW BOUNDARY MISC KINETIC TOTAL TEMP POTENTIAL TOTAL3 TEMPAVG PRESSURE GPRESSURE VOLUME PRESSAVG GPRESSAVG
ENERGY: 900 188.0739 678.6027 2828.3774 0.0000 -202414.5028 22316.5747 25.4462 0.0000 0.0000 -176377.4279 0.0000 -176377.4279 -176377.4279 0.0000 16640.3364 -27221.5701 534946.2959 16640.3364 -27221.5701
ENERGY: 920 207.3634 664.8356 2824.4579 0.0000 -202556.6948 22350.8753 26.1514 0.0000 0.0000 -176483.0112 0.0000 -176483.0112 -176483.0112 0.0000 16647.2029 -4773.6050 534946.2959 16647.2029 -4773.6050
ENERGY: 940 182.7253 661.4321 2821.9599 0.0000 -202948.6996 22516.6046 27.3598 0.0000 0.0000 -176738.6178 0.0000 -176738.6178 -176738.6178 0.0000 16708.1177 -4751.9252 534946.2959 16708.1177 -4751.9252
ENERGY: 960 165.6550 654.7489 2821.2504 0.0000 -203214.8235 22624.2750 27.9609 0.0000 0.0000 -176920.9333 0.0000 -176920.9333 -176920.9333 0.0000 16772.5484 -4716.1391 534946.2959 16772.5484 -4716.1391
ENERGY: 980 199.1230 683.9950 2820.8302 0.0000 -203788.8592 22891.4428 29.2364 0.0000 0.0000 -177164.2318 0.0000 -177164.2318 -177164.2318 0.0000 16926.6294 -4631.5413 534946.2959 16926.6294 -4631.5413
ENERGY: 1000 180.3386 665.9900 2816.3207 0.0000 -204302.7300 23113.2639 30.7196 0.0000 0.0000 -177496.0972 0.0000 -177496.0972 -177496.0972 0.0000 17001.2844 -4614.5024 534946.2959 17001.2844 -4614.5024
TCL: Setting parameter constraintScaling to 0
TCL: Minimizing for 5000 steps
ETITLE: TS BOND ANGLE DIHED IMPRP ELECT VDW BOUNDARY MISC KINETIC TOTAL TEMP POTENTIAL TOTAL3 TEMPAVG PRESSURE GPRESSURE VOLUME PRESSAVG GPRESSAVG
ENERGY: 1000 180.3386 665.9900 2816.3207 0.0000 -204302.7300 23113.2639 0.0000 0.0000 0.0000 -177526.8168 0.0000 -177526.8168 -177526.8168 0.0000 17026.4789 -27292.7362 534946.2959 17026.4789 -27292.7362
ENERGY: 2000 171.4578 663.0780 2803.3469 0.0000 -214335.4005 27779.1957 0.0000 0.0000 0.0000 -182918.3220 0.0000 -182918.3220 -182918.3220 0.0000 19540.0678 -3209.8179 534946.2959 19540.0678 -3209.8179
ENERGY: 3000 168.1773 665.8771 2794.5109 0.0000 -217398.7583 28835.8855 0.0000 0.0000 0.0000 -184934.3074 0.0000 -184934.3074 -184934.3074 0.0000 20074.7884 -3000.7448 534946.2959 20074.7884 -3000.7448
ENERGY: 4000 168.9521 664.8769 2792.1283 0.0000 -218689.8888 29351.3363 0.0000 0.0000 0.0000 -185712.5951 0.0000 -185712.5951 -185712.5951 0.0000 20350.3750 -2857.3942 534946.2959 20350.3750 -2857.3942
ENERGY: 5000 165.9277 662.5171 2787.6901 0.0000 -219339.2034 29595.2326 0.0000 0.0000 0.0000 -186127.8359 0.0000 -186127.8359 -186127.8359 0.0000 20481.5715 -2795.0121 534946.2959 20481.5715 -2795.0121
ENERGY: 6000 165.6567 663.9344 2789.7636 0.0000 -219826.6281 29781.8483 0.0000 0.0000 0.0000 -186425.4252 0.0000 -186425.4252 -186425.4252 0.0000 20579.0674 -2746.9851 534946.2959 20579.0674 -2746.9851
