Info: SIMULATION PARAMETERS:
Info: TIMESTEP               1
Info: NUMBER OF STEPS        0
Info: STEPS PER CYCLE        10
Info: PERIODIC CELL BASIS 1  72.449 0 0
Info: PERIODIC CELL BASIS 2  0 93.247 0
Info: PERIODIC CELL BASIS 3  0 0 79.185
Info: PERIODIC CELL CENTER   -0.248 -0.156 -0.047
Info: WRAPPING WATERS AROUND PERIODIC BOUNDARIES ON OUTPUT.
Info: WRAPPING ALL CLUSTERS AROUND PERIODIC BOUNDARIES ON OUTPUT.
Info: FIRST LDB TIMESTEP     50
Info: LAST LDB TIMESTEP     -1
Info: HOM BACKGROUND SCALING 1
Info: PME BACKGROUND SCALING 1
Info: MIN ATOMS PER PATCH    40
Info: VELOCITY FILE          ../replicas/rep65/equilibration/eq1.vel
Info: CENTER OF MASS MOVING INITIALLY? NO
Info: DIELECTRIC             1
Info: EXCLUDE                SCALED ONE-FOUR
Info: 1-4 ELECTROSTATICS SCALED BY 0.833333
Info: MODIFIED 1-4 VDW PARAMETERS WILL BE USED
Info: DCD FILENAME           ../replicas/rep65/equilibration/eq2.dcd
Info: DCD FREQUENCY          5000
Info: DCD FIRST STEP         5000
Info: DCD FILE WILL CONTAIN UNIT CELL DATA
Info: XST FILENAME           ../replicas/rep65/equilibration/eq2.xst
Info: XST FREQUENCY          5000
Info: NO VELOCITY DCD OUTPUT
Info: NO FORCE DCD OUTPUT
Info: OUTPUT FILENAME        ../replicas/rep65/equilibration/eq2
Info: RESTART FILENAME       ../replicas/rep65/equilibration/eq2.restart
Info: RESTART FREQUENCY      5000
Info: BINARY RESTART FILES WILL BE USED
Info: SWITCHING ACTIVE
Info: SWITCHING ON           10
Info: SWITCHING OFF          12
Info: PAIRLIST DISTANCE      13.5
Info: PAIRLIST SHRINK RATE   0.01
Info: PAIRLIST GROW RATE     0.01
Info: PAIRLIST TRIGGER       0.3
Info: PAIRLISTS PER CYCLE    2
Info: PAIRLISTS ENABLED
Info: MARGIN                 0.48
Info: HYDROGEN GROUP CUTOFF  2.5
Info: PATCH DIMENSION        16.48
Info: ENERGY OUTPUT STEPS    500
Info: CROSSTERM ENERGY INCLUDED IN DIHEDRAL
Info: TIMING OUTPUT STEPS    5000
Info: PRESSURE OUTPUT STEPS  500
Info: HARMONIC CONSTRAINTS ACTIVE
Info: HARMONIC CONS EXP      2
Info: HARMONIC CONS SCALING  10
Info: LANGEVIN DYNAMICS ACTIVE
Info: LANGEVIN TEMPERATURE   300
Info: LANGEVIN USING BBK INTEGRATOR
Info: LANGEVIN DAMPING COEFFICIENT IS 5 INVERSE PS
Info: LANGEVIN DYNAMICS NOT APPLIED TO HYDROGENS
Info: BERENDSEN PRESSURE COUPLING ACTIVE
Info:     TARGET PRESSURE IS 1 BAR
Info:     COMPRESSIBILITY ESTIMATE IS 4.57e-05 BAR^(-1)
Info:     RELAXATION TIME IS 100 FS
Info:     APPLIED EVERY 2 STEPS
Info:     PRESSURE CONTROL IS GROUP-BASED
Info:       CELL FLUCTUATION IS ISOTROPIC
Info: PARTICLE MESH EWALD (PME) ACTIVE
Info: PME TOLERANCE               1e-06
Info: PME EWALD COEFFICIENT       0.257952
Info: PME INTERPOLATION ORDER     4
Info: PME GRID DIMENSIONS         80 96 80
Info: PME MAXIMUM GRID SPACING    1
Info: FULL ELECTROSTATIC EVALUATION FREQUENCY      2
Info: USING VERLET I (r-RESPA) MTS SCHEME.
Info: C1 SPLITTING OF LONG RANGE ELECTROSTATICS
Info: PLACING ATOMS IN PATCHES BY HYDROGEN GROUPS
Info: RIGID BONDS TO HYDROGEN : WATER
Info:         ERROR TOLERANCE : 1e-05
Info:          MAX ITERATIONS : 100
Info: RIGID WATER USING SETTLE ALGORITHM
Info: RANDOM NUMBER SEED     1503709959
Info: USE HYDROGEN BONDS?    NO
Info: Using AMBER format force field!
Info: AMBER PARM FILE        ../build/complex.top
Info: COORDINATE PDB         ../replicas/rep65/equilibration/eq1.coor
Info: Exclusions in PARM file will be ignored!
Info: SCNB (VDW SCALING)     2
Info: USING ARITHMETIC MEAN TO COMBINE L-J SIGMA PARAMETERS
Info: SUMMARY OF PARAMETERS:
Info: 71 BONDS
Info: 145 ANGLES
Info:   145 HARMONIC
Info:   0 COSINE-BASED
Info: 76 DIHEDRAL
Info: 0 IMPROPER
Info: 0 CROSSTERM
Info: 0 VDW
Info: 190 VDW_PAIRS
Info: 0 NBTHOLE_PAIRS
Info: STRUCTURE SUMMARY:
Info: 49394 ATOMS
Info: 49448 BONDS
Info: 8698 ANGLES
Info: 18780 DIHEDRALS
Info: 0 IMPROPERS
Info: 0 CROSSTERMS
Info: 0 EXCLUSIONS
Info: 2336 CONSTRAINTS
Info: 44667 RIGID BONDS
Info: 103515 DEGREES OF FREEDOM
Info: 17225 HYDROGEN GROUPS
Info: 4 ATOMS IN LARGEST HYDROGEN GROUP
Info: 17225 MIGRATION GROUPS
Info: 4 ATOMS IN LARGEST MIGRATION GROUP
Info: TOTAL MASS = 301478 amu
Info: TOTAL CHARGE = 1.00115e-05 e
Info: MASS DENSITY = 0.935846 g/cm^3
Info: ATOM DENSITY = 0.0923345 atoms/A^3
Info: ADDED 70656 IMPLICIT EXCLUSIONS
Info: NONBONDED TABLE R-SQUARED SPACING: 0.0625
Info: NONBONDED TABLE SIZE: 769 POINTS
Info: REMOVING COM VELOCITY 0.00268977 0.00189716 -0.029094
TCL: Running for 5000 steps
ETITLE: TS BOND ANGLE DIHED IMPRP ELECT VDW BOUNDARY MISC KINETIC TOTAL TEMP POTENTIAL TOTAL3 TEMPAVG PRESSURE GPRESSURE VOLUME PRESSAVG GPRESSAVG
ENERGY: 0 377.1896 1229.6667 2916.4111 0.0000 -212734.0073 29472.9420 0.0000 0.0000 10067.1431 -168670.6548 97.8799 -178737.7979 -168661.0506 97.8799 -2368.0815 -2462.1371 534946.2959 -2368.0815 -2462.1371
ENERGY: 1000 1235.7140 1945.4260 3117.1642 0.0000 -193823.5347 26719.3224 734.6490 0.0000 24115.6994 -135955.5597 234.4698 -160071.2592 -135925.1320 218.8689 2.0768 -28.5422 521319.4521 -20.8369 -21.3877
ENERGY: 2000 1480.5385 2173.6229 3123.1469 0.0000 -184235.1441 23381.3086 826.2694 0.0000 27739.8202 -125510.4377 269.7061 -153250.2578 -125472.9258 263.4762 -95.8100 -13.7739 516075.3067 -20.6803 -20.7307
ENERGY: 3000 1523.8597 2242.5251 3123.6520 0.0000 -179230.9588 21471.4636 809.4543 0.0000 29475.1982 -120584.8059 286.5786 -150060.0041 -120540.5900 284.8145 -151.3185 -5.9697 508528.3619 -31.6585 -31.9735
ENERGY: 4000 1529.9017 2224.1589 3134.2288 0.0000 -176956.3053 20634.7370 822.6983 0.0000 30404.5239 -118206.0567 295.6142 -148610.5806 -118154.7260 293.2235 -52.4774 -24.0269 505522.9000 -18.3338 -18.0773
ENERGY: 5000 1565.6635 2261.1895 3143.8516 0.0000 -176526.5163 20719.8337 811.2210 0.0000 30657.4816 -117367.2753 298.0736 -148024.7569 -117323.2484 297.6911 -68.3629 -20.0524 504197.2640 -5.8117 -5.7664
TCL: Setting parameter constraintScaling to 5.0
TCL: Running for 5000 steps
ETITLE: TS BOND ANGLE DIHED IMPRP ELECT VDW BOUNDARY MISC KINETIC TOTAL TEMP POTENTIAL TOTAL3 TEMPAVG PRESSURE GPRESSURE VOLUME PRESSAVG GPRESSAVG
ENERGY: 5000 1565.6635 2261.1895 3143.8516 0.0000 -176526.5163 20719.8337 405.6105 0.0000 30655.4422 -117774.9253 298.0538 -148430.3674 -117730.5170 298.0538 -9.7188 30.5268 504197.2640 -9.7188 30.5268
ENERGY: 6000 1602.0871 2271.7157 3154.5157 0.0000 -175932.6106 20500.5445 626.4415 0.0000 30655.1027 -117122.2033 298.0505 -147777.3060 -117086.4245 298.2124 -38.6675 5.9924 503041.3049 -2.9230 -2.5784
ENERGY: 7000 1524.2975 2336.6560 3171.8002 0.0000 -175728.2979 20404.9263 642.9180 0.0000 30751.5247 -116896.1752 298.9880 -147647.7000 -116859.1823 298.8578 12.5837 28.8482 502402.2142 -7.0512 -6.8684
ENERGY: 8000 1585.9394 2340.4145 3180.9172 0.0000 -175415.4134 20105.7246 635.3345 0.0000 30701.3136 -116865.7696 298.4998 -147567.0832 -116828.0130 299.8390 55.9608 16.8117 501451.2688 -9.1181 -9.3935
ENERGY: 9000 1589.6399 2373.2514 3155.2406 0.0000 -175676.7336 20408.7633 642.6720 0.0000 30940.0345 -116567.1318 300.8208 -147507.1663 -116519.4578 299.4489 64.4279 41.3174 500779.3628 -0.6472 -0.8280
ENERGY: 10000 1552.8039 2265.4823 3151.1698 0.0000 -175842.4712 20186.4543 645.6513 0.0000 30982.9342 -117057.9754 301.2379 -148040.9096 -117003.4668 298.8436 49.2148 42.9975 498976.7606 -12.9671 -13.4508
TCL: Setting parameter constraintScaling to 2.5
TCL: Running for 5000 steps
ETITLE: TS BOND ANGLE DIHED IMPRP ELECT VDW BOUNDARY MISC KINETIC TOTAL TEMP POTENTIAL TOTAL3 TEMPAVG PRESSURE GPRESSURE VOLUME PRESSAVG GPRESSAVG
ENERGY: 10000 1552.8039 2265.4823 3151.1698 0.0000 -175842.4712 20186.4543 322.8256 0.0000 30980.8816 -117382.8536 301.2180 -148363.7352 -117336.2191 301.2180 29.8890 21.2083 498976.7606 29.8890 21.2083
ENERGY: 11000 1602.9115 2318.2286 3164.0361 0.0000 -175575.4561 19986.9907 507.2589 0.0000 31069.4407 -116926.5897 302.0790 -147996.0303 -116877.7883 299.3694 13.1681 -13.2007 501561.5804 15.9533 15.7502
ENERGY: 12000 1687.9458 2344.8748 3190.0701 0.0000 -175469.7302 19896.5867 520.7174 0.0000 30962.9306 -116866.6048 301.0434 -147829.5354 -116823.0283 300.2312 6.5447 -4.7226 501022.2613 -5.3950 -5.2842
ENERGY: 13000 1642.7871 2285.1338 3179.5688 0.0000 -175416.1956 20020.9305 509.4079 0.0000 30980.3276 -116798.0400 301.2126 -147778.3676 -116764.5917 300.5400 -131.3935 -32.5928 500742.5940 4.7684 5.1362
ENERGY: 14000 1677.9124 2366.9521 3191.6295 0.0000 -176183.7790 20464.0705 515.9948 0.0000 30650.3773 -117316.8424 298.0046 -147967.2197 -117273.7606 298.7272 73.3361 44.4619 500335.4254 11.7339 11.9635
ENERGY: 15000 1620.3125 2327.6714 3158.3033 0.0000 -176050.8098 20304.0561 514.4815 0.0000 30772.3909 -117353.5941 299.1909 -148125.9850 -117308.3120 299.5614 49.3980 19.6437 499115.6454 -13.7723 -14.2931
TCL: Setting parameter constraintScaling to 1.25
TCL: Running for 5000 steps
ETITLE: TS BOND ANGLE DIHED IMPRP ELECT VDW BOUNDARY MISC KINETIC TOTAL TEMP POTENTIAL TOTAL3 TEMPAVG PRESSURE GPRESSURE VOLUME PRESSAVG GPRESSAVG
ENERGY: 15000 1620.3125 2327.6714 3158.3033 0.0000 -176050.8098 20304.0561 257.2407 0.0000 30770.3409 -117612.8848 299.1709 -148383.2258 -117572.5646 299.1709 64.6886 32.4005 499115.6454 64.6886 32.4005
ENERGY: 16000 1643.8604 2363.4594 3177.6083 0.0000 -176312.6031 20471.6513 398.1347 0.0000 30622.7688 -117635.1203 297.7361 -148257.8891 -117593.2701 299.1935 8.2054 19.9201 497893.9918 -2.0095 -2.4422
ENERGY: 17000 1573.0812 2341.0848 3170.6624 0.0000 -175660.8779 20006.0847 393.9804 0.0000 30731.5166 -117444.4678 298.7935 -148175.9844 -117396.3171 298.5036 20.5806 16.8604 497160.4148 -9.6439 -9.1786
ENERGY: 18000 1620.8326 2317.8848 3166.1957 0.0000 -175896.8379 20174.5729 385.8378 0.0000 30833.0877 -117398.4266 299.7810 -148231.5143 -117348.5606 299.2383 -8.5565 12.6705 498130.6569 0.2815 0.3181
ENERGY: 19000 1577.2538 2382.6715 3161.0754 0.0000 -176043.2731 20267.8231 397.2827 0.0000 30923.7328 -117333.4339 300.6623 -148257.1667 -117292.2259 299.0775 -159.2384 78.2478 497368.0055 -4.4846 -4.1771
ENERGY: 20000 1620.6545 2340.5670 3189.6838 0.0000 -176145.9968 20328.3142 419.8445 0.0000 30604.4651 -117642.4679 297.5582 -148246.9329 -117598.8531 299.0445 133.8168 52.6749 497403.8483 -5.8654 -6.3227
TCL: Setting parameter constraintScaling to 0.625
TCL: Running for 5000 steps
ETITLE: TS BOND ANGLE DIHED IMPRP ELECT VDW BOUNDARY MISC KINETIC TOTAL TEMP POTENTIAL TOTAL3 TEMPAVG PRESSURE GPRESSURE VOLUME PRESSAVG GPRESSAVG
ENERGY: 20000 1620.6545 2340.5670 3189.6838 0.0000 -176145.9968 20328.3142 209.9222 0.0000 30602.4136 -117854.4416 297.5382 -148456.8552 -117808.8145 297.5382 164.7850 77.4757 497403.8483 164.7850 77.4757
ENERGY: 21000 1643.7819 2376.7051 3191.5314 0.0000 -176049.2036 20105.1496 323.1533 0.0000 30687.6154 -117721.2669 298.3666 -148408.8823 -117678.0431 297.7462 -10.8873 -27.8098 497649.1987 -2.0087 -1.9302
ENERGY: 22000 1649.0523 2405.1990 3186.8712 0.0000 -176344.9734 20342.3999 300.6099 0.0000 30610.9015 -117849.9394 297.6208 -148460.8409 -117806.0777 298.0832 4.9764 95.1695 496794.0758 0.9010 1.0327
ENERGY: 23000 1650.3567 2389.8049 3192.7571 0.0000 -175965.6493 20101.7817 313.2206 0.0000 30512.0753 -117805.6530 296.6599 -148317.7283 -117769.6791 297.7307 -59.0743 2.5093 497826.9440 0.0646 0.4134
ENERGY: 24000 1589.7704 2353.6705 3222.3879 0.0000 -175752.7663 20121.8123 312.0587 0.0000 30742.9619 -117410.1047 298.9047 -148153.0666 -117373.6709 298.4648 -17.4774 56.3332 499682.5150 12.2038 12.6178
ENERGY: 25000 1586.4831 2418.7872 3202.8017 0.0000 -176030.8125 20261.7765 306.2539 0.0000 30837.3078 -117417.4022 299.8220 -148254.7099 -117375.5692 299.2884 -86.4850 -8.8265 499472.6918 4.3583 5.1265
TCL: Setting parameter constraintScaling to 0.3125
TCL: Running for 5000 steps
ETITLE: TS BOND ANGLE DIHED IMPRP ELECT VDW BOUNDARY MISC KINETIC TOTAL TEMP POTENTIAL TOTAL3 TEMPAVG PRESSURE GPRESSURE VOLUME PRESSAVG GPRESSAVG
ENERGY: 25000 1586.4831 2418.7872 3202.8017 0.0000 -176030.8125 20261.7765 153.1270 0.0000 30835.3053 -117572.5317 299.8026 -148407.8369 -117527.2302 299.8026 -95.5251 -15.8393 499472.6918 -95.5251 -15.8393
ENERGY: 26000 1649.5925 2366.7803 3211.5484 0.0000 -175624.7265 19985.6271 235.1086 0.0000 30660.8523 -117515.2172 298.1064 -148176.0696 -117468.5125 299.3718 -91.1859 -11.9948 498238.3858 -10.4173 -10.1787
ENERGY: 27000 1660.2130 2355.3186 3225.9231 0.0000 -175830.5496 20038.8361 226.5911 0.0000 30515.7690 -117807.8987 296.6958 -148323.6677 -117775.3914 299.6358 -69.0117 2.7156 498098.4422 -7.4695 -7.8628
ENERGY: 28000 1605.3040 2413.8079 3212.3538 0.0000 -175948.4930 20121.6242 240.7133 0.0000 30774.1737 -117580.5160 299.2082 -148354.6897 -117539.8148 299.5499 -61.4725 41.0667 499012.6947 3.5709 3.6796
ENERGY: 29000 1537.8495 2399.4785 3197.8881 0.0000 -175895.9751 20114.1662 234.8413 0.0000 30622.3578 -117789.3935 297.7321 -148411.7514 -117738.5067 299.5873 -61.9970 -11.1869 498279.8276 -5.6834 -5.6000
ENERGY: 30000 1621.3012 2432.3917 3201.3363 0.0000 -175854.1863 20176.5981 272.7543 0.0000 30984.5598 -117165.2449 301.2537 -148149.8047 -117118.5002 299.3615 0.7392 8.7260 497940.9083 -11.7525 -11.8183
TCL: Setting parameter constraintScaling to 0.15625
TCL: Running for 5000 steps
ETITLE: TS BOND ANGLE DIHED IMPRP ELECT VDW BOUNDARY MISC KINETIC TOTAL TEMP POTENTIAL TOTAL3 TEMPAVG PRESSURE GPRESSURE VOLUME PRESSAVG GPRESSAVG
ENERGY: 30000 1621.3012 2432.3917 3201.3363 0.0000 -175854.1863 20176.5981 136.3771 0.0000 30982.5289 -117303.6530 301.2340 -148286.1819 -117263.2748 301.2340 -4.9926 8.1595 497940.9083 -4.9926 8.1595
ENERGY: 31000 1633.4651 2467.6546 3223.0022 0.0000 -175869.1718 20211.5031 179.8228 0.0000 30907.6987 -117246.0253 300.5064 -148153.7240 -117179.2727 300.7202 59.2271 80.8135 497579.3681 -8.6971 -8.5899
ENERGY: 32000 1674.1160 2431.0700 3205.6021 0.0000 -175723.2138 19948.3876 200.9679 0.0000 30732.5001 -117530.5701 298.8030 -148263.0702 -117482.9056 299.8361 -76.5531 4.8554 496364.4399 -8.2103 -8.3274
ENERGY: 33000 1659.9636 2427.7112 3223.6947 0.0000 -176239.7218 20202.0143 198.6035 0.0000 30715.6837 -117812.0509 298.6395 -148527.7345 -117772.7745 299.6887 -32.5051 20.3129 496679.0607 -6.0348 -5.5910
ENERGY: 34000 1614.8213 2461.0999 3186.3544 0.0000 -176061.3496 20134.4468 203.1739 0.0000 30773.8282 -117687.6251 299.2048 -148461.4533 -117640.9282 297.9775 -111.2651 11.4659 496749.6367 -6.2892 -6.3112
ENERGY: 35000 1617.8424 2412.2061 3215.4716 0.0000 -175904.4875 20050.8024 205.8538 0.0000 30794.6226 -117607.6885 299.4070 -148402.3111 -117560.5374 299.4475 -95.7691 -52.6746 496960.4707 4.4607 4.0816
TCL: Setting parameter constraintScaling to 0.078125
TCL: Running for 5000 steps
ETITLE: TS BOND ANGLE DIHED IMPRP ELECT VDW BOUNDARY MISC KINETIC TOTAL TEMP POTENTIAL TOTAL3 TEMPAVG PRESSURE GPRESSURE VOLUME PRESSAVG GPRESSAVG
ENERGY: 35000 1617.8424 2412.2061 3215.4716 0.0000 -175904.4875 20050.8024 102.9269 0.0000 30792.5527 -117712.6854 299.3869 -148505.2380 -117669.0500 299.3869 -91.2837 -50.1410 496960.4707 -91.2837 -50.1410
ENERGY: 36000 1606.1256 2435.0962 3198.4336 0.0000 -176047.4209 20144.8658 145.6911 0.0000 30808.1381 -117709.0704 299.5384 -148517.2085 -117652.6720 299.8527 64.4678 51.6141 495764.4428 4.2491 3.6966
ENERGY: 37000 1658.5990 2390.3754 3232.0087 0.0000 -175961.9651 20069.9647 154.1740 0.0000 31129.8584 -117326.9850 302.6664 -148456.8434 -117276.1201 300.9871 38.2318 8.7746 497464.0751 3.1963 3.5352
ENERGY: 38000 1591.3009 2386.1742 3211.8686 0.0000 -176059.5891 20306.6313 155.6710 0.0000 30957.9340 -117450.0091 300.9949 -148407.9431 -117401.6602 300.7511 36.9793 52.8034 497953.0340 0.4105 0.6409
ENERGY: 39000 1637.0671 2415.7314 3200.4511 0.0000 -175802.0799 19963.2214 160.9690 0.0000 30632.2953 -117792.3445 297.8288 -148424.6399 -117763.6316 299.0154 -33.5461 -24.7639 497259.1616 3.1116 3.0338
ENERGY: 40000 1700.1275 2413.1056 3195.0088 0.0000 -176015.9337 20244.9076 169.5082 0.0000 30890.0050 -117403.2710 300.3344 -148293.2761 -117370.6832 298.6322 100.4039 80.3400 498265.4150 8.9056 9.4356
TCL: Setting parameter constraintScaling to 0.0390625
TCL: Running for 5000 steps
ETITLE: TS BOND ANGLE DIHED IMPRP ELECT VDW BOUNDARY MISC KINETIC TOTAL TEMP POTENTIAL TOTAL3 TEMPAVG PRESSURE GPRESSURE VOLUME PRESSAVG GPRESSAVG
ENERGY: 40000 1700.1275 2413.1056 3195.0088 0.0000 -176015.9337 20244.9076 84.7541 0.0000 30887.9686 -117490.0615 300.3146 -148378.0302 -117450.2914 300.3146 78.8583 60.1266 498265.4150 78.8583 60.1266
ENERGY: 41000 1657.2593 2455.8262 3223.1472 0.0000 -176434.1112 20208.9820 110.7500 0.0000 30789.1642 -117988.9821 299.3540 -148778.1463 -117942.2155 299.0193 -91.2811 -15.0307 496871.1548 -7.8790 -7.9740
ENERGY: 42000 1604.1180 2385.4975 3229.0514 0.0000 -176103.2654 19924.0198 113.7276 0.0000 30872.9143 -117973.9368 300.1682 -148846.8511 -117939.9659 298.9697 -172.6095 -75.9844 496374.8091 -5.7418 -5.6971
ENERGY: 43000 1603.5006 2432.8649 3225.4644 0.0000 -176095.3149 19989.2007 117.8145 0.0000 30687.4615 -118039.0084 298.3651 -148726.4698 -117998.0065 298.6869 21.5659 26.6937 497070.7706 11.0188 10.8827
ENERGY: 44000 1667.4812 2399.9380 3232.6023 0.0000 -175999.9469 20099.6360 128.7719 0.0000 30574.1661 -117897.3514 297.2636 -148471.5175 -117852.1113 298.9971 -23.1112 64.5178 496636.5299 2.3303 2.0569
ENERGY: 45000 1629.7422 2422.8032 3200.7057 0.0000 -175959.9752 20097.5197 121.6945 0.0000 30624.9204 -117862.5896 297.7571 -148487.5100 -117813.3877 298.7456 -102.6029 -99.6113 498024.5760 10.6658 10.0755
TCL: Setting parameter constraintScaling to 0.01953125
TCL: Running for 5000 steps
ETITLE: TS BOND ANGLE DIHED IMPRP ELECT VDW BOUNDARY MISC KINETIC TOTAL TEMP POTENTIAL TOTAL3 TEMPAVG PRESSURE GPRESSURE VOLUME PRESSAVG GPRESSAVG
ENERGY: 45000 1629.7422 2422.8032 3200.7057 0.0000 -175959.9752 20097.5197 60.8473 0.0000 30622.8854 -117925.4719 297.7373 -148548.3573 -117882.0301 297.7373 -86.3084 -89.4668 498024.5760 -86.3084 -89.4668
ENERGY: 46000 1670.3859 2383.0823 3198.6456 0.0000 -176146.0379 20141.2808 75.5301 0.0000 30514.1435 -118162.9697 296.6800 -148677.1132 -118117.2458 298.5011 -20.9470 28.6400 496672.1598 0.9045 0.4861
ENERGY: 47000 1653.8885 2380.4773 3220.8595 0.0000 -176294.8920 20236.7860 80.5083 0.0000 30665.2808 -118057.0917 298.1495 -148722.3725 -118015.2079 299.3335 30.7130 49.6909 497102.3684 7.1115 7.0597
ENERGY: 48000 1700.1384 2449.9746 3194.2602 0.0000 -176002.9012 20152.6987 87.1632 0.0000 30462.5579 -117956.1081 296.1785 -148418.6660 -117922.4526 299.6346 -152.7632 -27.1992 496817.1888 -1.1554 -1.3980
ENERGY: 49000 1603.5654 2375.8109 3193.8945 0.0000 -176244.8547 20172.9523 88.8071 0.0000 30999.3722 -117810.4522 301.3977 -148809.8244 -117753.0792 299.7267 10.1858 7.5608 496995.1119 9.8644 10.4206
ENERGY: 50000 1673.7617 2421.2134 3222.0792 0.0000 -175992.6625 20052.8140 84.4027 0.0000 30869.7224 -117668.6691 300.1372 -148538.3915 -117616.7010 299.2636 74.4419 73.6068 497671.5596 7.1518 6.9065
TCL: Setting parameter constraintScaling to 0
TCL: Running for 5000 steps
ETITLE: TS BOND ANGLE DIHED IMPRP ELECT VDW BOUNDARY MISC KINETIC TOTAL TEMP POTENTIAL TOTAL3 TEMPAVG PRESSURE GPRESSURE VOLUME PRESSAVG GPRESSAVG
ENERGY: 50000 1673.7617 2421.2134 3222.0792 0.0000 -175992.6625 20052.8140 0.0000 0.0000 30867.6494 -117755.1448 300.1170 -148622.7942 -117715.6381 300.1170 56.1621 56.1469 497671.5596 56.1621 56.1469
ENERGY: 51000 1599.8219 2331.8619 3208.4101 0.0000 -175654.3775 19969.5080 0.0000 0.0000 30804.0450 -117740.7304 299.4986 -148544.7754 -117700.8871 299.4404 5.6319 12.4120 497873.5964 8.3674 8.5018
ENERGY: 52000 1673.7311 2412.0479 3234.6770 0.0000 -175608.8676 19870.5973 0.0000 0.0000 30879.8567 -117537.9575 300.2357 -148417.8142 -117494.8396 300.1648 56.3474 52.5650 496299.0793 0.5312 0.7766
ENERGY: 53000 1660.5556 2448.6004 3177.8349 0.0000 -176362.3764 20202.3962 0.0000 0.0000 30942.7735 -117930.2158 300.8475 -148872.9893 -117885.4510 300.0348 34.2146 -2.8980 495979.1304 10.9527 10.7165
ENERGY: 54000 1635.8142 2448.4287 3215.1546 0.0000 -176412.0542 20145.0475 0.0000 0.0000 31067.1165 -117900.4928 302.0564 -148967.6092 -117843.3515 299.4846 -34.9237 -10.3637 494358.4791 -11.0134 -10.8320
ENERGY: 55000 1633.9172 2427.1766 3191.4894 0.0000 -175744.5771 19901.7466 0.0000 0.0000 30629.3197 -117960.9276 297.7998 -148590.2473 -117913.2366 299.7055 112.8280 -20.7845 495819.2244 0.7535 0.6244
