Info: SIMULATION PARAMETERS:
Info: TIMESTEP               2
Info: NUMBER OF STEPS        0
Info: STEPS PER CYCLE        10
Info: PERIODIC CELL BASIS 1  72.449 0 0
Info: PERIODIC CELL BASIS 2  0 93.247 0
Info: PERIODIC CELL BASIS 3  0 0 79.185
Info: PERIODIC CELL CENTER   -0.248 -0.156 -0.047
Info: WRAPPING WATERS AROUND PERIODIC BOUNDARIES ON OUTPUT.
Info: WRAPPING ALL CLUSTERS AROUND PERIODIC BOUNDARIES ON OUTPUT.
Info: FIRST LDB TIMESTEP     50
Info: LAST LDB TIMESTEP     -1
Info: HOM BACKGROUND SCALING 1
Info: PME BACKGROUND SCALING 1
Info: MIN ATOMS PER PATCH    40
Info: INITIAL TEMPERATURE    0
Info: CENTER OF MASS MOVING INITIALLY? NO
Info: DIELECTRIC             1
Info: EXCLUDE                SCALED ONE-FOUR
Info: 1-4 ELECTROSTATICS SCALED BY 0.833333
Info: MODIFIED 1-4 VDW PARAMETERS WILL BE USED
Info: NO DCD TRAJECTORY OUTPUT
Info: NO EXTENDED SYSTEM TRAJECTORY OUTPUT
Info: NO VELOCITY DCD OUTPUT
Info: NO FORCE DCD OUTPUT
Info: OUTPUT FILENAME        ../replicas/rep99/equilibration/eq0
Info: NO RESTART FILE
Info: SWITCHING ACTIVE
Info: SWITCHING ON           10
Info: SWITCHING OFF          12
Info: PAIRLIST DISTANCE      13.5
Info: PAIRLIST SHRINK RATE   0.01
Info: PAIRLIST GROW RATE     0.01
Info: PAIRLIST TRIGGER       0.3
Info: PAIRLISTS PER CYCLE    2
Info: PAIRLISTS ENABLED
Info: MARGIN                 0
Info: HYDROGEN GROUP CUTOFF  2.5
Info: PATCH DIMENSION        16
Info: ENERGY OUTPUT STEPS    500
Info: CROSSTERM ENERGY INCLUDED IN DIHEDRAL
Info: TIMING OUTPUT STEPS    5000
Info: PRESSURE OUTPUT STEPS  500
Info: HARMONIC CONSTRAINTS ACTIVE
Info: HARMONIC CONS EXP      2
Info: HARMONIC CONS SCALING  10
Info: CONJUGATE GRADIENT MINIMIZATION ACTIVE
Info: LINE MINIMIZATION GOAL = 0.001
Info: BABY STEP SIZE = 0.01
Info: TINY STEP SIZE = 1e-06
Info: PARTICLE MESH EWALD (PME) ACTIVE
Info: PME TOLERANCE               1e-06
Info: PME EWALD COEFFICIENT       0.257952
Info: PME INTERPOLATION ORDER     4
Info: PME GRID DIMENSIONS         80 96 80
Info: PME MAXIMUM GRID SPACING    1
Info: FULL ELECTROSTATIC EVALUATION FREQUENCY      2
Info: USING VERLET I (r-RESPA) MTS SCHEME.
Info: C1 SPLITTING OF LONG RANGE ELECTROSTATICS
Info: PLACING ATOMS IN PATCHES BY HYDROGEN GROUPS
Info: RIGID BONDS TO HYDROGEN : ALL
Info:         ERROR TOLERANCE : 1e-05
Info:          MAX ITERATIONS : 100
Info: RIGID WATER USING SETTLE ALGORITHM
Info: RANDOM NUMBER SEED     1503691734
Info: USE HYDROGEN BONDS?    NO
Info: Using AMBER format force field!
Info: AMBER PARM FILE        ../build/complex.top
Info: COORDINATE PDB         ../build/complex.pdb
Info: Exclusions in PARM file will be ignored!
Info: SCNB (VDW SCALING)     2
Info: USING ARITHMETIC MEAN TO COMBINE L-J SIGMA PARAMETERS
Info: SUMMARY OF PARAMETERS:
Info: 71 BONDS
Info: 145 ANGLES
Info: 76 DIHEDRAL
Info: 0 IMPROPER
Info: 0 CROSSTERM
Info: 0 VDW
Info: 190 VDW_PAIRS
Info: 0 NBTHOLE_PAIRS
Info: STRUCTURE SUMMARY:
Info: 49394 ATOMS
Info: 49448 BONDS
Info: 8698 ANGLES
Info: 18780 DIHEDRALS
Info: 0 IMPROPERS
Info: 0 CROSSTERMS
Info: 0 EXCLUSIONS
Info: 2336 CONSTRAINTS
Info: 47058 RIGID BONDS
Info: 101124 DEGREES OF FREEDOM
Info: 17225 HYDROGEN GROUPS
Info: 4 ATOMS IN LARGEST HYDROGEN GROUP
Info: 17225 MIGRATION GROUPS
Info: 4 ATOMS IN LARGEST MIGRATION GROUP
Info: TOTAL MASS = 301478 amu
Info: TOTAL CHARGE = 1.00115e-05 e
Info: MASS DENSITY = 0.935846 g/cm^3
Info: ATOM DENSITY = 0.0923345 atoms/A^3
Info: ADDED 70656 IMPLICIT EXCLUSIONS
Info: NONBONDED TABLE R-SQUARED SPACING: 0.0625
Info: NONBONDED TABLE SIZE: 769 POINTS
Info: REMOVING COM VELOCITY 0 0 0
TCL: Minimizing for 100 steps
ETITLE: TS BOND ANGLE DIHED IMPRP ELECT VDW BOUNDARY MISC KINETIC TOTAL TEMP POTENTIAL TOTAL3 TEMPAVG PRESSURE GPRESSURE VOLUME PRESSAVG GPRESSAVG
ENERGY: 0 155.4176 1012.2698 2855.7272 0.0000 -154496.7910 207729.2052 0.0468 0.0000 0.0000 57255.8756 0.0000 57255.8756 57255.8756 0.0000 116350.2532 86546.1670 534946.2959 116350.2532 86546.1670
ENERGY: 20 304.7536 935.7910 2893.4663 0.0000 -158672.9395 17936.6600 143.9453 0.0000 0.0000 -136458.3233 0.0000 -136458.3233 -136458.3233 0.0000 16523.9393 -239.4551 534946.2959 16523.9393 -239.4551
ENERGY: 40 198.7442 799.5727 2896.9273 0.0000 -162811.4548 16417.9532 221.3030 0.0000 0.0000 -142276.9544 0.0000 -142276.9544 -142276.9544 0.0000 15011.2698 -2135.4705 534946.2959 15011.2698 -2135.4705
ENERGY: 60 130.5282 715.3440 2898.2166 0.0000 -167496.1594 15446.7536 315.2797 0.0000 0.0000 -147990.0374 0.0000 -147990.0374 -147990.0374 0.0000 13793.8832 -3799.3994 534946.2959 13793.8832 -3799.3994
ENERGY: 80 431.2747 765.6311 2904.3785 0.0000 -169937.5303 15121.1523 372.0122 0.0000 0.0000 -150343.0815 0.0000 -150343.0815 -150343.0815 0.0000 13270.3303 -4577.2460 534946.2959 13270.3303 -4577.2460
ENERGY: 100 119.3860 710.0599 2905.2589 0.0000 -171259.7137 14991.7870 387.3612 0.0000 0.0000 -152145.8605 0.0000 -152145.8605 -152145.8605 0.0000 13056.2652 -4908.1728 534946.2959 13056.2652 -4908.1728
TCL: Setting parameter constraintScaling to 5.0
TCL: Minimizing for 100 steps
ETITLE: TS BOND ANGLE DIHED IMPRP ELECT VDW BOUNDARY MISC KINETIC TOTAL TEMP POTENTIAL TOTAL3 TEMPAVG PRESSURE GPRESSURE VOLUME PRESSAVG GPRESSAVG
ENERGY: 100 119.3860 710.0599 2905.2589 0.0000 -171259.7137 14991.7870 193.6806 0.0000 0.0000 -152339.5412 0.0000 -152339.5412 -152339.5412 0.0000 13672.7713 -23021.8186 534946.2959 13672.7713 -23021.8186
ENERGY: 120 108.8807 687.5828 2912.9265 0.0000 -172865.8713 14798.2714 281.1910 0.0000 0.0000 -154077.0189 0.0000 -154077.0189 -154077.0189 0.0000 13218.2579 -4906.0122 534946.2959 13218.2579 -4906.0122
ENERGY: 140 309.3841 708.8569 2913.8026 0.0000 -174236.8023 14731.4745 326.6436 0.0000 0.0000 -155246.6406 0.0000 -155246.6406 -155246.6406 0.0000 12971.5136 -5303.2728 534946.2959 12971.5136 -5303.2728
ENERGY: 160 265.5345 683.2001 2923.1911 0.0000 -176276.9756 14757.4326 382.9512 0.0000 0.0000 -157264.6661 0.0000 -157264.6661 -157264.6661 0.0000 12740.7515 -5743.4206 534946.2959 12740.7515 -5743.4206
ENERGY: 180 268.7015 744.1015 2928.5662 0.0000 -178996.6727 15023.7269 473.3689 0.0000 0.0000 -159558.2077 0.0000 -159558.2077 -159558.2077 0.0000 12521.5382 -6224.0353 534946.2959 12521.5382 -6224.0353
ENERGY: 200 239.0947 694.0659 2941.3755 0.0000 -181557.2206 15587.2745 546.2847 0.0000 0.0000 -161549.1254 0.0000 -161549.1254 -161549.1254 0.0000 12582.6632 -6430.9800 534946.2959 12582.6632 -6430.9800
TCL: Setting parameter constraintScaling to 2.5
TCL: Minimizing for 100 steps
ETITLE: TS BOND ANGLE DIHED IMPRP ELECT VDW BOUNDARY MISC KINETIC TOTAL TEMP POTENTIAL TOTAL3 TEMPAVG PRESSURE GPRESSURE VOLUME PRESSAVG GPRESSAVG
ENERGY: 200 239.0947 694.0659 2941.3755 0.0000 -181557.2206 15587.2745 273.1424 0.0000 0.0000 -161822.2677 0.0000 -161822.2677 -161822.2677 0.0000 13229.5937 -25661.8646 534946.2959 13229.5937 -25661.8646
ENERGY: 220 245.6595 677.0166 2932.9968 0.0000 -182075.0439 15472.5029 337.3078 0.0000 0.0000 -162409.5602 0.0000 -162409.5602 -162409.5602 0.0000 12973.0069 -6095.0400 534946.2959 12973.0069 -6095.0400
ENERGY: 240 154.2743 693.7767 2928.7147 0.0000 -182681.9835 15529.7540 347.0906 0.0000 0.0000 -163028.3733 0.0000 -163028.3733 -163028.3733 0.0000 13033.3462 -6138.3402 534946.2959 13033.3462 -6138.3402
ENERGY: 260 178.6088 683.3087 2920.2013 0.0000 -184291.6802 15886.2446 399.0670 0.0000 0.0000 -164224.2497 0.0000 -164224.2497 -164224.2497 0.0000 13053.7733 -6281.5718 534946.2959 13053.7733 -6281.5718
ENERGY: 280 169.2156 700.8371 2917.5852 0.0000 -185421.3301 16227.9488 454.9618 0.0000 0.0000 -164950.7816 0.0000 -164950.7816 -164950.7816 0.0000 13142.7539 -6345.6767 534946.2959 13142.7539 -6345.6767
ENERGY: 300 126.6830 639.5154 2916.2442 0.0000 -186092.5604 16444.7637 481.3873 0.0000 0.0000 -165483.9668 0.0000 -165483.9668 -165483.9668 0.0000 13207.1975 -6349.5942 534946.2959 13207.1975 -6349.5942
TCL: Setting parameter constraintScaling to 1.25
TCL: Minimizing for 100 steps
ETITLE: TS BOND ANGLE DIHED IMPRP ELECT VDW BOUNDARY MISC KINETIC TOTAL TEMP POTENTIAL TOTAL3 TEMPAVG PRESSURE GPRESSURE VOLUME PRESSAVG GPRESSAVG
ENERGY: 300 126.6830 639.5154 2916.2442 0.0000 -186092.5604 16444.7637 240.6936 0.0000 0.0000 -165724.6604 0.0000 -165724.6604 -165724.6604 0.0000 13655.5390 -26359.3494 534946.2959 13655.5390 -26359.3494
ENERGY: 320 148.4968 637.5077 2911.2502 0.0000 -186812.6504 16619.9428 284.2614 0.0000 0.0000 -166211.1915 0.0000 -166211.1915 -166211.1915 0.0000 13612.2475 -6008.7400 534946.2959 13612.2475 -6008.7400
ENERGY: 340 139.4448 625.1984 2909.3148 0.0000 -187242.2164 16770.1645 288.8918 0.0000 0.0000 -166509.2021 0.0000 -166509.2021 -166509.2021 0.0000 13697.4718 -5978.1466 534946.2959 13697.4718 -5978.1466
ENERGY: 360 180.0898 671.5037 2908.1239 0.0000 -188764.2639 17289.4958 344.9086 0.0000 0.0000 -167370.1421 0.0000 -167370.1421 -167370.1421 0.0000 13870.6141 -5999.9715 534946.2959 13870.6141 -5999.9715
ENERGY: 380 197.6350 647.4174 2901.0186 0.0000 -190432.2452 17945.7130 402.0681 0.0000 0.0000 -168338.3932 0.0000 -168338.3932 -168338.3932 0.0000 14030.1100 -5983.8391 534946.2959 14030.1100 -5983.8391
ENERGY: 400 139.1891 653.7734 2901.7812 0.0000 -190646.0997 17989.7794 400.3373 0.0000 0.0000 -168561.2392 0.0000 -168561.2392 -168561.2392 0.0000 14152.1361 -5930.6094 534946.2959 14152.1361 -5930.6094
TCL: Setting parameter constraintScaling to 0.625
TCL: Minimizing for 100 steps
ETITLE: TS BOND ANGLE DIHED IMPRP ELECT VDW BOUNDARY MISC KINETIC TOTAL TEMP POTENTIAL TOTAL3 TEMPAVG PRESSURE GPRESSURE VOLUME PRESSAVG GPRESSAVG
ENERGY: 400 139.1891 653.7734 2901.7812 0.0000 -190646.0997 17989.7794 200.1687 0.0000 0.0000 -168761.4079 0.0000 -168761.4079 -168761.4079 0.0000 14452.8543 -26625.7769 534946.2959 14452.8543 -26625.7769
ENERGY: 420 174.4344 642.4541 2898.4719 0.0000 -190946.6030 18065.1746 215.5747 0.0000 0.0000 -168950.4933 0.0000 -168950.4933 -168950.4933 0.0000 14349.2545 -5726.8550 534946.2959 14349.2545 -5726.8550
ENERGY: 440 171.9168 645.1731 2892.1908 0.0000 -191547.1429 18235.1993 242.2022 0.0000 0.0000 -169360.4607 0.0000 -169360.4607 -169360.4607 0.0000 14403.2619 -5752.6797 534946.2959 14403.2619 -5752.6797
ENERGY: 460 164.1012 639.2587 2886.4566 0.0000 -192111.7095 18429.0232 258.7376 0.0000 0.0000 -169734.1322 0.0000 -169734.1322 -169734.1322 0.0000 14482.0025 -5740.4958 534946.2959 14482.0025 -5740.4958
ENERGY: 480 236.6758 660.2568 2890.4333 0.0000 -193467.4351 18953.7777 294.1041 0.0000 0.0000 -170432.1874 0.0000 -170432.1874 -170432.1874 0.0000 14665.2734 -5697.4810 534946.2959 14665.2734 -5697.4810
ENERGY: 500 141.2758 639.1353 2882.1284 0.0000 -193539.1424 18981.3169 293.1154 0.0000 0.0000 -170602.1706 0.0000 -170602.1706 -170602.1706 0.0000 14748.3650 -5641.0255 534946.2959 14748.3650 -5641.0255
TCL: Setting parameter constraintScaling to 0.3125
TCL: Minimizing for 100 steps
ETITLE: TS BOND ANGLE DIHED IMPRP ELECT VDW BOUNDARY MISC KINETIC TOTAL TEMP POTENTIAL TOTAL3 TEMPAVG PRESSURE GPRESSURE VOLUME PRESSAVG GPRESSAVG
ENERGY: 500 141.2758 639.1353 2882.1284 0.0000 -193539.1424 18981.3169 146.5577 0.0000 0.0000 -170748.7283 0.0000 -170748.7283 -170748.7283 0.0000 14939.0109 -26819.3006 534946.2959 14939.0109 -26819.3006
ENERGY: 520 148.1032 648.4438 2877.1159 0.0000 -194048.9398 19156.3106 162.6990 0.0000 0.0000 -171056.2672 0.0000 -171056.2672 -171056.2672 0.0000 14995.1717 -5457.2319 534946.2959 14995.1717 -5457.2319
ENERGY: 540 155.0203 635.3157 2875.5805 0.0000 -194250.9416 19229.2162 166.1434 0.0000 0.0000 -171189.6655 0.0000 -171189.6655 -171189.6655 0.0000 14986.4792 -5470.9668 534946.2959 14986.4792 -5470.9668
ENERGY: 560 204.0552 659.7420 2874.9298 0.0000 -195637.2008 19750.7021 197.0415 0.0000 0.0000 -171950.7303 0.0000 -171950.7303 -171950.7303 0.0000 15207.1999 -5411.2571 534946.2959 15207.1999 -5411.2571
ENERGY: 580 150.2400 650.2709 2869.5736 0.0000 -196032.1344 19906.5396 205.9551 0.0000 0.0000 -172249.5553 0.0000 -172249.5553 -172249.5553 0.0000 15296.0814 -5377.1926 534946.2959 15296.0814 -5377.1926
ENERGY: 600 184.4676 655.2703 2864.5915 0.0000 -196709.3845 20168.0223 215.2950 0.0000 0.0000 -172621.7378 0.0000 -172621.7378 -172621.7378 0.0000 15365.5288 -5366.6599 534946.2959 15365.5288 -5366.6599
TCL: Setting parameter constraintScaling to 0.15625
TCL: Minimizing for 100 steps
ETITLE: TS BOND ANGLE DIHED IMPRP ELECT VDW BOUNDARY MISC KINETIC TOTAL TEMP POTENTIAL TOTAL3 TEMPAVG PRESSURE GPRESSURE VOLUME PRESSAVG GPRESSAVG
ENERGY: 600 184.4676 655.2703 2864.5915 0.0000 -196709.3845 20168.0223 107.6475 0.0000 0.0000 -172729.3853 0.0000 -172729.3853 -172729.3853 0.0000 15485.5187 -27024.1342 534946.2959 15485.5187 -27024.1342
ENERGY: 620 172.3663 646.4972 2862.3090 0.0000 -197096.2627 20295.3795 115.4154 0.0000 0.0000 -173004.2953 0.0000 -173004.2953 -173004.2953 0.0000 15532.1797 -5245.9197 534946.2959 15532.1797 -5245.9197
ENERGY: 640 150.9700 658.6469 2858.3917 0.0000 -197901.9785 20598.7125 127.4545 0.0000 0.0000 -173507.8029 0.0000 -173507.8029 -173507.8029 0.0000 15708.4723 -5177.2508 534946.2959 15708.4723 -5177.2508
ENERGY: 660 158.0156 648.0320 2852.6363 0.0000 -198607.0342 20876.0256 139.3841 0.0000 0.0000 -173932.9405 0.0000 -173932.9405 -173932.9405 0.0000 15809.0094 -5153.5422 534946.2959 15809.0094 -5153.5422
ENERGY: 680 187.4487 646.4612 2851.5107 0.0000 -198918.7704 20990.4499 141.4013 0.0000 0.0000 -174101.4986 0.0000 -174101.4986 -174101.4986 0.0000 15821.2612 -5156.8556 534946.2959 15821.2612 -5156.8556
ENERGY: 700 157.2327 663.4981 2846.0263 0.0000 -199585.8148 21245.5191 147.1819 0.0000 0.0000 -174526.3566 0.0000 -174526.3566 -174526.3566 0.0000 16025.9585 -5059.6847 534946.2959 16025.9585 -5059.6847
TCL: Setting parameter constraintScaling to 0.078125
TCL: Minimizing for 100 steps
ETITLE: TS BOND ANGLE DIHED IMPRP ELECT VDW BOUNDARY MISC KINETIC TOTAL TEMP POTENTIAL TOTAL3 TEMPAVG PRESSURE GPRESSURE VOLUME PRESSAVG GPRESSAVG
ENERGY: 700 157.2327 663.4981 2846.0263 0.0000 -199585.8148 21245.5191 73.5910 0.0000 0.0000 -174599.9476 0.0000 -174599.9476 -174599.9476 0.0000 16098.7810 -27093.3696 534946.2959 16098.7810 -27093.3696
ENERGY: 720 215.9897 700.0834 2848.2681 0.0000 -200009.0664 21397.7179 78.9494 0.0000 0.0000 -174768.0578 0.0000 -174768.0578 -174768.0578 0.0000 16196.8683 -4969.1230 534946.2959 16196.8683 -4969.1230
ENERGY: 740 186.0492 656.7297 2844.0599 0.0000 -200272.1882 21490.6937 82.6886 0.0000 0.0000 -175011.9671 0.0000 -175011.9671 -175011.9671 0.0000 16097.5599 -5028.7743 534946.2959 16097.5599 -5028.7743
ENERGY: 760 167.6325 656.3459 2838.5144 0.0000 -200717.4905 21651.6466 87.2742 0.0000 0.0000 -175316.0769 0.0000 -175316.0769 -175316.0769 0.0000 16211.5344 -4985.9794 534946.2959 16211.5344 -4985.9794
ENERGY: 780 163.6523 665.6811 2837.7083 0.0000 -200919.7861 21734.7531 86.5137 0.0000 0.0000 -175431.4774 0.0000 -175431.4774 -175431.4774 0.0000 16318.5253 -4921.1870 534946.2959 16318.5253 -4921.1870
ENERGY: 800 166.0193 654.4853 2832.6234 0.0000 -201616.2010 22019.6553 90.8003 0.0000 0.0000 -175852.6174 0.0000 -175852.6174 -175852.6174 0.0000 16483.2801 -4852.7913 534946.2959 16483.2801 -4852.7913
TCL: Setting parameter constraintScaling to 0.0390625
TCL: Minimizing for 100 steps
ETITLE: TS BOND ANGLE DIHED IMPRP ELECT VDW BOUNDARY MISC KINETIC TOTAL TEMP POTENTIAL TOTAL3 TEMPAVG PRESSURE GPRESSURE VOLUME PRESSAVG GPRESSAVG
ENERGY: 800 166.0193 654.4853 2832.6234 0.0000 -201616.2010 22019.6553 45.4001 0.0000 0.0000 -175898.0175 0.0000 -175898.0175 -175898.0175 0.0000 16524.6530 -27161.5570 534946.2959 16524.6530 -27161.5570
ENERGY: 820 231.6323 705.3999 2833.9127 0.0000 -201940.1897 22123.6120 48.6540 0.0000 0.0000 -175996.9787 0.0000 -175996.9787 -175996.9787 0.0000 16527.0493 -4848.2246 534946.2959 16527.0493 -4848.2246
ENERGY: 840 173.1559 667.4112 2829.8874 0.0000 -202072.1963 22181.5963 49.5071 0.0000 0.0000 -176170.6384 0.0000 -176170.6384 -176170.6384 0.0000 16522.2881 -4836.9337 534946.2959 16522.2881 -4836.9337
ENERGY: 860 162.7108 665.4300 2828.6450 0.0000 -202254.6872 22250.9111 50.5723 0.0000 0.0000 -176296.4181 0.0000 -176296.4181 -176296.4181 0.0000 16579.5800 -4816.4118 534946.2959 16579.5800 -4816.4118
ENERGY: 880 171.4357 653.5697 2824.5967 0.0000 -202486.4226 22347.3257 50.7266 0.0000 0.0000 -176438.7682 0.0000 -176438.7682 -176438.7682 0.0000 16609.4454 -4797.9255 534946.2959 16609.4454 -4797.9255
ENERGY: 900 161.2728 662.4943 2826.4049 0.0000 -202872.9409 22533.1550 52.0744 0.0000 0.0000 -176637.5395 0.0000 -176637.5395 -176637.5395 0.0000 16755.4603 -4714.7398 534946.2959 16755.4603 -4714.7398
TCL: Setting parameter constraintScaling to 0.01953125
TCL: Minimizing for 100 steps
ETITLE: TS BOND ANGLE DIHED IMPRP ELECT VDW BOUNDARY MISC KINETIC TOTAL TEMP POTENTIAL TOTAL3 TEMPAVG PRESSURE GPRESSURE VOLUME PRESSAVG GPRESSAVG
ENERGY: 900 161.2728 662.4943 2826.4049 0.0000 -202872.9409 22533.1550 26.0372 0.0000 0.0000 -176663.5767 0.0000 -176663.5767 -176663.5767 0.0000 16777.9343 -27210.2776 534946.2959 16777.9343 -27210.2776
ENERGY: 920 229.3631 694.8457 2827.1284 0.0000 -203111.8301 22585.3710 27.3033 0.0000 0.0000 -176747.8185 0.0000 -176747.8185 -176747.8185 0.0000 16751.8015 -4730.2747 534946.2959 16751.8015 -4730.2747
ENERGY: 940 231.5752 671.4575 2820.0135 0.0000 -203443.1430 22740.0313 28.3571 0.0000 0.0000 -176951.7085 0.0000 -176951.7085 -176951.7085 0.0000 16805.0494 -4701.6678 534946.2959 16805.0494 -4701.6678
ENERGY: 960 172.8620 667.7021 2821.2628 0.0000 -203667.6981 22825.6643 29.0206 0.0000 0.0000 -177151.1864 0.0000 -177151.1864 -177151.1864 0.0000 16884.1316 -4676.3744 534946.2959 16884.1316 -4676.3744
ENERGY: 980 185.1853 667.0841 2816.5845 0.0000 -203930.4701 22936.6109 29.5039 0.0000 0.0000 -177295.5014 0.0000 -177295.5014 -177295.5014 0.0000 16943.6735 -4637.4081 534946.2959 16943.6735 -4637.4081
ENERGY: 1000 239.9038 684.0145 2821.2196 0.0000 -204240.9064 23074.1642 30.2115 0.0000 0.0000 -177391.3928 0.0000 -177391.3928 -177391.3928 0.0000 17016.8157 -4615.3514 534946.2959 17016.8157 -4615.3514
TCL: Setting parameter constraintScaling to 0
TCL: Minimizing for 5000 steps
ETITLE: TS BOND ANGLE DIHED IMPRP ELECT VDW BOUNDARY MISC KINETIC TOTAL TEMP POTENTIAL TOTAL3 TEMPAVG PRESSURE GPRESSURE VOLUME PRESSAVG GPRESSAVG
ENERGY: 1000 239.9038 684.0145 2821.2196 0.0000 -204240.9064 23074.1642 0.0000 0.0000 0.0000 -177421.6043 0.0000 -177421.6043 -177421.6043 0.0000 17041.6409 -27267.7855 534946.2959 17041.6409 -27267.7855
ENERGY: 2000 180.5844 667.7335 2800.8732 0.0000 -214370.0532 27589.9777 0.0000 0.0000 0.0000 -183130.8844 0.0000 -183130.8844 -183130.8844 0.0000 19426.4528 -3340.6857 534946.2959 19426.4528 -3340.6857
ENERGY: 3000 173.0160 672.8383 2796.5447 0.0000 -217313.5185 28820.5320 0.0000 0.0000 0.0000 -184850.5876 0.0000 -184850.5876 -184850.5876 0.0000 20069.9849 -2712.0563 534946.2959 20069.9849 -2712.0563
ENERGY: 4000 166.0220 664.7015 2789.9719 0.0000 -218649.4472 29311.8325 0.0000 0.0000 0.0000 -185716.9193 0.0000 -185716.9193 -185716.9193 0.0000 20336.7841 -2580.1152 534946.2959 20336.7841 -2580.1152
ENERGY: 5000 224.6414 671.6037 2790.0728 0.0000 -219342.6524 29597.4842 0.0000 0.0000 0.0000 -186058.8505 0.0000 -186058.8505 -186058.8505 0.0000 20481.4591 -2519.8752 534946.2959 20481.4591 -2519.8752
ENERGY: 6000 164.8331 660.6713 2788.4120 0.0000 -219749.9186 29736.5006 0.0000 0.0000 0.0000 -186399.5016 0.0000 -186399.5016 -186399.5016 0.0000 20561.4459 -2479.4484 534946.2959 20561.4459 -2479.4484
