Info: SIMULATION PARAMETERS:
Info: TIMESTEP               2
Info: NUMBER OF STEPS        0
Info: STEPS PER CYCLE        10
Info: PERIODIC CELL BASIS 1  72.449 0 0
Info: PERIODIC CELL BASIS 2  0 93.247 0
Info: PERIODIC CELL BASIS 3  0 0 79.185
Info: PERIODIC CELL CENTER   -0.248 -0.156 -0.047
Info: WRAPPING WATERS AROUND PERIODIC BOUNDARIES ON OUTPUT.
Info: WRAPPING ALL CLUSTERS AROUND PERIODIC BOUNDARIES ON OUTPUT.
Info: FIRST LDB TIMESTEP     50
Info: LAST LDB TIMESTEP     -1
Info: HOM BACKGROUND SCALING 1
Info: PME BACKGROUND SCALING 1
Info: MIN ATOMS PER PATCH    40
Info: INITIAL TEMPERATURE    0
Info: CENTER OF MASS MOVING INITIALLY? NO
Info: DIELECTRIC             1
Info: EXCLUDE                SCALED ONE-FOUR
Info: 1-4 ELECTROSTATICS SCALED BY 0.833333
Info: MODIFIED 1-4 VDW PARAMETERS WILL BE USED
Info: NO DCD TRAJECTORY OUTPUT
Info: NO EXTENDED SYSTEM TRAJECTORY OUTPUT
Info: NO VELOCITY DCD OUTPUT
Info: NO FORCE DCD OUTPUT
Info: OUTPUT FILENAME        ../replicas/rep73/equilibration/eq0
Info: NO RESTART FILE
Info: SWITCHING ACTIVE
Info: SWITCHING ON           10
Info: SWITCHING OFF          12
Info: PAIRLIST DISTANCE      13.5
Info: PAIRLIST SHRINK RATE   0.01
Info: PAIRLIST GROW RATE     0.01
Info: PAIRLIST TRIGGER       0.3
Info: PAIRLISTS PER CYCLE    2
Info: PAIRLISTS ENABLED
Info: MARGIN                 0
Info: HYDROGEN GROUP CUTOFF  2.5
Info: PATCH DIMENSION        16
Info: ENERGY OUTPUT STEPS    500
Info: CROSSTERM ENERGY INCLUDED IN DIHEDRAL
Info: TIMING OUTPUT STEPS    5000
Info: PRESSURE OUTPUT STEPS  500
Info: HARMONIC CONSTRAINTS ACTIVE
Info: HARMONIC CONS EXP      2
Info: HARMONIC CONS SCALING  10
Info: CONJUGATE GRADIENT MINIMIZATION ACTIVE
Info: LINE MINIMIZATION GOAL = 0.001
Info: BABY STEP SIZE = 0.01
Info: TINY STEP SIZE = 1e-06
Info: PARTICLE MESH EWALD (PME) ACTIVE
Info: PME TOLERANCE               1e-06
Info: PME EWALD COEFFICIENT       0.257952
Info: PME INTERPOLATION ORDER     4
Info: PME GRID DIMENSIONS         80 96 80
Info: PME MAXIMUM GRID SPACING    1
Info: FULL ELECTROSTATIC EVALUATION FREQUENCY      2
Info: USING VERLET I (r-RESPA) MTS SCHEME.
Info: C1 SPLITTING OF LONG RANGE ELECTROSTATICS
Info: PLACING ATOMS IN PATCHES BY HYDROGEN GROUPS
Info: RIGID BONDS TO HYDROGEN : ALL
Info:         ERROR TOLERANCE : 1e-05
Info:          MAX ITERATIONS : 100
Info: RIGID WATER USING SETTLE ALGORITHM
Info: RANDOM NUMBER SEED     1503690980
Info: USE HYDROGEN BONDS?    NO
Info: Using AMBER format force field!
Info: AMBER PARM FILE        ../build/complex.top
Info: COORDINATE PDB         ../build/complex.pdb
Info: Exclusions in PARM file will be ignored!
Info: SCNB (VDW SCALING)     2
Info: USING ARITHMETIC MEAN TO COMBINE L-J SIGMA PARAMETERS
Info: SUMMARY OF PARAMETERS:
Info: 71 BONDS
Info: 145 ANGLES
Info: 76 DIHEDRAL
Info: 0 IMPROPER
Info: 0 CROSSTERM
Info: 0 VDW
Info: 190 VDW_PAIRS
Info: 0 NBTHOLE_PAIRS
Info: STRUCTURE SUMMARY:
Info: 49394 ATOMS
Info: 49448 BONDS
Info: 8698 ANGLES
Info: 18780 DIHEDRALS
Info: 0 IMPROPERS
Info: 0 CROSSTERMS
Info: 0 EXCLUSIONS
Info: 2336 CONSTRAINTS
Info: 47058 RIGID BONDS
Info: 101124 DEGREES OF FREEDOM
Info: 17225 HYDROGEN GROUPS
Info: 4 ATOMS IN LARGEST HYDROGEN GROUP
Info: 17225 MIGRATION GROUPS
Info: 4 ATOMS IN LARGEST MIGRATION GROUP
Info: TOTAL MASS = 301478 amu
Info: TOTAL CHARGE = 1.00115e-05 e
Info: MASS DENSITY = 0.935846 g/cm^3
Info: ATOM DENSITY = 0.0923345 atoms/A^3
Info: ADDED 70656 IMPLICIT EXCLUSIONS
Info: NONBONDED TABLE R-SQUARED SPACING: 0.0625
Info: NONBONDED TABLE SIZE: 769 POINTS
Info: REMOVING COM VELOCITY 0 0 0
TCL: Minimizing for 100 steps
ETITLE: TS BOND ANGLE DIHED IMPRP ELECT VDW BOUNDARY MISC KINETIC TOTAL TEMP POTENTIAL TOTAL3 TEMPAVG PRESSURE GPRESSURE VOLUME PRESSAVG GPRESSAVG
ENERGY: 0 155.4176 1012.2698 2855.7272 0.0000 -154496.7910 207729.2052 0.0468 0.0000 0.0000 57255.8756 0.0000 57255.8756 57255.8756 0.0000 116350.2532 86546.1670 534946.2959 116350.2532 86546.1670
ENERGY: 20 304.7547 935.7911 2893.4663 0.0000 -158672.9403 17936.6595 143.9454 0.0000 0.0000 -136458.3232 0.0000 -136458.3232 -136458.3232 0.0000 16523.9388 -239.4557 534946.2959 16523.9388 -239.4557
ENERGY: 40 198.7445 799.5728 2896.9273 0.0000 -162811.4533 16417.9536 221.3030 0.0000 0.0000 -142276.9521 0.0000 -142276.9521 -142276.9521 0.0000 15011.2702 -2135.4699 534946.2959 15011.2702 -2135.4699
ENERGY: 60 130.5282 715.3440 2898.2166 0.0000 -167496.1576 15446.7538 315.2796 0.0000 0.0000 -147990.0354 0.0000 -147990.0354 -147990.0354 0.0000 13793.8835 -3799.3989 534946.2959 13793.8835 -3799.3989
ENERGY: 80 431.2730 765.6307 2904.3786 0.0000 -169937.5305 15121.1523 372.0122 0.0000 0.0000 -150343.0837 0.0000 -150343.0837 -150343.0837 0.0000 13270.3306 -4577.2453 534946.2959 13270.3306 -4577.2453
ENERGY: 100 119.3858 710.0600 2905.2590 0.0000 -171259.7146 14991.7868 387.3613 0.0000 0.0000 -152145.8617 0.0000 -152145.8617 -152145.8617 0.0000 13056.2651 -4908.1729 534946.2959 13056.2651 -4908.1729
TCL: Setting parameter constraintScaling to 5.0
TCL: Minimizing for 100 steps
ETITLE: TS BOND ANGLE DIHED IMPRP ELECT VDW BOUNDARY MISC KINETIC TOTAL TEMP POTENTIAL TOTAL3 TEMPAVG PRESSURE GPRESSURE VOLUME PRESSAVG GPRESSAVG
ENERGY: 100 119.3858 710.0600 2905.2590 0.0000 -171259.7146 14991.7868 193.6806 0.0000 0.0000 -152339.5423 0.0000 -152339.5423 -152339.5423 0.0000 13672.7713 -23021.8191 534946.2959 13672.7713 -23021.8191
ENERGY: 120 108.8822 687.5836 2912.9266 0.0000 -172865.8792 14798.2709 281.1914 0.0000 0.0000 -154077.0246 0.0000 -154077.0246 -154077.0246 0.0000 13218.2559 -4906.0151 534946.2959 13218.2559 -4906.0151
ENERGY: 140 309.4119 708.8634 2913.8025 0.0000 -174236.7218 14731.4788 326.6410 0.0000 0.0000 -155246.5242 0.0000 -155246.5242 -155246.5242 0.0000 12971.5215 -5303.2548 534946.2959 12971.5215 -5303.2548
ENERGY: 160 265.3527 683.1484 2923.1807 0.0000 -176275.9452 14757.3720 382.9123 0.0000 0.0000 -157263.9791 0.0000 -157263.9791 -157263.9791 0.0000 12740.8818 -5743.0932 534946.2959 12740.8818 -5743.0932
ENERGY: 180 268.8155 744.0964 2928.5660 0.0000 -178995.8318 15023.5853 473.3246 0.0000 0.0000 -159557.4440 0.0000 -159557.4440 -159557.4440 0.0000 12521.5822 -6223.8540 534946.2959 12521.5822 -6223.8540
ENERGY: 200 238.9751 694.0810 2941.3677 0.0000 -181556.6334 15587.1368 546.2730 0.0000 0.0000 -161548.7998 0.0000 -161548.7998 -161548.7998 0.0000 12582.6521 -6431.1954 534946.2959 12582.6521 -6431.1954
TCL: Setting parameter constraintScaling to 2.5
TCL: Minimizing for 100 steps
ETITLE: TS BOND ANGLE DIHED IMPRP ELECT VDW BOUNDARY MISC KINETIC TOTAL TEMP POTENTIAL TOTAL3 TEMPAVG PRESSURE GPRESSURE VOLUME PRESSAVG GPRESSAVG
ENERGY: 200 238.9751 694.0810 2941.3677 0.0000 -181556.6334 15587.1368 273.1365 0.0000 0.0000 -161821.9364 0.0000 -161821.9364 -161821.9364 0.0000 13229.5683 -25662.0309 534946.2959 13229.5683 -25662.0309
ENERGY: 220 246.6437 677.7171 2933.0075 0.0000 -182076.9213 15471.9681 337.6624 0.0000 0.0000 -162409.9225 0.0000 -162409.9225 -162409.9225 0.0000 12971.5980 -6096.9221 534946.2959 12971.5980 -6096.9221
ENERGY: 240 115.5934 674.4867 2928.4577 0.0000 -182573.2725 15511.0986 345.0152 0.0000 0.0000 -162998.6207 0.0000 -162998.6207 -162998.6207 0.0000 13036.6711 -6123.6139 534946.2959 13036.6711 -6123.6139
ENERGY: 260 144.9004 676.5184 2920.8413 0.0000 -184117.4334 15842.0968 391.8260 0.0000 0.0000 -164141.2505 0.0000 -164141.2505 -164141.2505 0.0000 13045.1393 -6264.7164 534946.2959 13045.1393 -6264.7164
ENERGY: 280 172.1047 701.3077 2917.6094 0.0000 -185429.6834 16231.3793 455.1923 0.0000 0.0000 -164952.0900 0.0000 -164952.0900 -164952.0900 0.0000 13143.8929 -6345.9064 534946.2959 13143.8929 -6345.9064
ENERGY: 300 126.6655 639.5598 2916.2524 0.0000 -186096.1930 16446.4161 481.4028 0.0000 0.0000 -165485.8963 0.0000 -165485.8963 -165485.8963 0.0000 13208.0061 -6349.5431 534946.2959 13208.0061 -6349.5431
TCL: Setting parameter constraintScaling to 1.25
TCL: Minimizing for 100 steps
ETITLE: TS BOND ANGLE DIHED IMPRP ELECT VDW BOUNDARY MISC KINETIC TOTAL TEMP POTENTIAL TOTAL3 TEMPAVG PRESSURE GPRESSURE VOLUME PRESSAVG GPRESSAVG
ENERGY: 300 126.6655 639.5598 2916.2524 0.0000 -186096.1930 16446.4161 240.7014 0.0000 0.0000 -165726.5977 0.0000 -165726.5977 -165726.5977 0.0000 13656.3706 -26359.6992 534946.2959 13656.3706 -26359.6992
ENERGY: 320 151.9897 633.5014 2910.3573 0.0000 -186875.8732 16640.5333 285.1940 0.0000 0.0000 -166254.2975 0.0000 -166254.2975 -166254.2975 0.0000 13628.1129 -6002.2461 534946.2959 13628.1129 -6002.2461
ENERGY: 340 146.1136 627.8871 2911.6610 0.0000 -187702.5971 16921.2889 307.4491 0.0000 0.0000 -166788.1974 0.0000 -166788.1974 -166788.1974 0.0000 13657.9976 -6034.4271 534946.2959 13657.9976 -6034.4271
ENERGY: 360 134.3333 650.0886 2903.7219 0.0000 -189415.9056 17536.6206 365.1025 0.0000 0.0000 -167826.0387 0.0000 -167826.0387 -167826.0387 0.0000 13977.4806 -5959.4153 534946.2959 13977.4806 -5959.4153
ENERGY: 380 137.1084 632.5913 2898.5821 0.0000 -190626.4861 18017.3569 406.7872 0.0000 0.0000 -168534.0603 0.0000 -168534.0603 -168534.0603 0.0000 14109.1274 -5946.8920 534946.2959 14109.1274 -5946.8920
ENERGY: 400 205.3244 668.5592 2903.1486 0.0000 -191064.8962 18132.0893 402.3028 0.0000 0.0000 -168753.4720 0.0000 -168753.4720 -168753.4720 0.0000 14158.3626 -5946.2736 534946.2959 14158.3626 -5946.2736
TCL: Setting parameter constraintScaling to 0.625
TCL: Minimizing for 100 steps
ETITLE: TS BOND ANGLE DIHED IMPRP ELECT VDW BOUNDARY MISC KINETIC TOTAL TEMP POTENTIAL TOTAL3 TEMPAVG PRESSURE GPRESSURE VOLUME PRESSAVG GPRESSAVG
ENERGY: 400 205.3244 668.5592 2903.1486 0.0000 -191064.8962 18132.0893 201.1514 0.0000 0.0000 -168954.6234 0.0000 -168954.6234 -168954.6234 0.0000 14460.5795 -26726.0166 534946.2959 14460.5795 -26726.0166
ENERGY: 420 148.1233 629.8270 2895.1448 0.0000 -191229.7920 18176.2724 209.2261 0.0000 0.0000 -169171.1983 0.0000 -169171.1983 -169171.1983 0.0000 14469.4095 -5661.2231 534946.2959 14469.4095 -5661.2231
ENERGY: 440 174.2345 641.7405 2889.7941 0.0000 -191799.5912 18349.7195 235.9787 0.0000 0.0000 -169508.1238 0.0000 -169508.1238 -169508.1238 0.0000 14504.2082 -5690.0588 534946.2959 14504.2082 -5690.0588
ENERGY: 460 147.2288 635.9423 2886.0430 0.0000 -192522.2440 18597.3926 260.7252 0.0000 0.0000 -169994.9121 0.0000 -169994.9121 -169994.9121 0.0000 14577.0783 -5696.2370 534946.2959 14577.0783 -5696.2370
ENERGY: 480 159.5822 643.2778 2883.8917 0.0000 -193280.5462 18881.0203 273.1353 0.0000 0.0000 -170439.6390 0.0000 -170439.6390 -170439.6390 0.0000 14705.7277 -5650.5465 534946.2959 14705.7277 -5650.5465
ENERGY: 500 189.9444 654.7885 2880.7586 0.0000 -194912.5235 19556.0187 308.7760 0.0000 0.0000 -171322.2374 0.0000 -171322.2374 -171322.2374 0.0000 15021.3657 -5519.1286 534946.2959 15021.3657 -5519.1286
TCL: Setting parameter constraintScaling to 0.3125
TCL: Minimizing for 100 steps
ETITLE: TS BOND ANGLE DIHED IMPRP ELECT VDW BOUNDARY MISC KINETIC TOTAL TEMP POTENTIAL TOTAL3 TEMPAVG PRESSURE GPRESSURE VOLUME PRESSAVG GPRESSAVG
ENERGY: 500 189.9444 654.7885 2880.7586 0.0000 -194912.5236 19556.0187 154.3880 0.0000 0.0000 -171476.6254 0.0000 -171476.6254 -171476.6254 0.0000 15219.5253 -26868.1565 534946.2959 15219.5253 -26868.1565
ENERGY: 520 199.9584 668.2881 2875.6495 0.0000 -195358.0499 19685.9725 175.5163 0.0000 0.0000 -171752.6652 0.0000 -171752.6652 -171752.6652 0.0000 15218.0308 -5381.0778 534946.2959 15218.0308 -5381.0778
ENERGY: 540 222.4769 665.1036 2867.6967 0.0000 -196098.1106 19955.4615 201.9100 0.0000 0.0000 -172185.4619 0.0000 -172185.4619 -172185.4619 0.0000 15281.4882 -5384.5342 534946.2959 15281.4882 -5384.5342
ENERGY: 560 155.6215 658.7972 2871.8017 0.0000 -196283.6707 20008.4758 199.2525 0.0000 0.0000 -172389.7220 0.0000 -172389.7220 -172389.7220 0.0000 15338.3250 -5355.3166 534946.2959 15338.3250 -5355.3166
ENERGY: 580 177.8214 682.4344 2897.9776 0.0000 -197094.7499 20390.4247 196.8693 0.0000 0.0000 -172749.2224 0.0000 -172749.2224 -172749.2224 0.0000 15567.0935 -5216.1076 534946.2959 15567.0935 -5216.1076
ENERGY: 600 183.5469 705.2934 2902.6054 0.0000 -198449.1150 21013.0082 217.9370 0.0000 0.0000 -173426.7240 0.0000 -173426.7240 -173426.7240 0.0000 15938.9776 -5011.7845 534946.2959 15938.9776 -5011.7845
TCL: Setting parameter constraintScaling to 0.15625
TCL: Minimizing for 100 steps
ETITLE: TS BOND ANGLE DIHED IMPRP ELECT VDW BOUNDARY MISC KINETIC TOTAL TEMP POTENTIAL TOTAL3 TEMPAVG PRESSURE GPRESSURE VOLUME PRESSAVG GPRESSAVG
ENERGY: 600 183.5469 705.2934 2902.6054 0.0000 -198449.1150 21013.0082 108.9685 0.0000 0.0000 -173535.6925 0.0000 -173535.6925 -173535.6925 0.0000 16064.7188 -26872.9872 534946.2959 16064.7188 -26872.9872
ENERGY: 620 322.1406 724.0372 2865.2656 0.0000 -198747.0605 20999.1382 122.0303 0.0000 0.0000 -173714.4486 0.0000 -173714.4486 -173714.4486 0.0000 15961.9724 -5063.0164 534946.2959 15961.9724 -5063.0164
ENERGY: 640 151.6698 648.3996 2854.0708 0.0000 -198824.1009 21025.5660 124.4512 0.0000 0.0000 -174019.9435 0.0000 -174019.9435 -174019.9435 0.0000 15940.8066 -5050.3820 534946.2959 15940.8066 -5050.3820
ENERGY: 660 197.1225 694.3024 2857.0387 0.0000 -199327.9769 21205.3366 142.2056 0.0000 0.0000 -174231.9709 0.0000 -174231.9709 -174231.9709 0.0000 15923.9804 -5124.6533 534946.2959 15923.9804 -5124.6533
ENERGY: 680 168.0362 669.7923 2853.2546 0.0000 -199346.0472 21186.8949 139.8721 0.0000 0.0000 -174328.1970 0.0000 -174328.1970 -174328.1970 0.0000 15954.9617 -5090.6263 534946.2959 15954.9617 -5090.6263
ENERGY: 700 156.6930 647.6471 2856.3027 0.0000 -199727.4356 21330.8620 137.0402 0.0000 0.0000 -174598.8906 0.0000 -174598.8906 -174598.8906 0.0000 16077.9050 -5012.5656 534946.2959 16077.9050 -5012.5656
TCL: Setting parameter constraintScaling to 0.078125
TCL: Minimizing for 100 steps
ETITLE: TS BOND ANGLE DIHED IMPRP ELECT VDW BOUNDARY MISC KINETIC TOTAL TEMP POTENTIAL TOTAL3 TEMPAVG PRESSURE GPRESSURE VOLUME PRESSAVG GPRESSAVG
ENERGY: 700 156.6930 647.6471 2856.3027 0.0000 -199727.4356 21330.8620 68.5201 0.0000 0.0000 -174667.4107 0.0000 -174667.4107 -174667.4107 0.0000 16147.9586 -27087.6931 534946.2959 16147.9586 -27087.6931
ENERGY: 720 179.3325 672.1255 2845.4390 0.0000 -200170.5499 21481.7795 77.1611 0.0000 0.0000 -174914.7123 0.0000 -174914.7123 -174914.7123 0.0000 16114.8294 -5024.1020 534946.2959 16114.8294 -5024.1020
ENERGY: 740 168.2806 681.6064 2844.3177 0.0000 -200568.5132 21632.4887 82.7704 0.0000 0.0000 -175159.0494 0.0000 -175159.0494 -175159.0494 0.0000 16214.1896 -4976.4730 534946.2959 16214.1896 -4976.4730
ENERGY: 760 190.8597 688.0602 2846.2600 0.0000 -200817.2116 21707.2165 80.4887 0.0000 0.0000 -175304.3265 0.0000 -175304.3265 -175304.3265 0.0000 16281.9930 -4945.7398 534946.2959 16281.9930 -4945.7398
ENERGY: 780 219.7087 747.5819 2864.1584 0.0000 -201358.5739 21951.5791 83.3690 0.0000 0.0000 -175492.1769 0.0000 -175492.1769 -175492.1769 0.0000 16416.4363 -4870.3861 534946.2959 16416.4363 -4870.3861
ENERGY: 800 159.2356 662.0764 2847.3799 0.0000 -201511.6092 21981.1580 85.3145 0.0000 0.0000 -175776.4448 0.0000 -175776.4448 -175776.4448 0.0000 16482.3412 -4828.0148 534946.2959 16482.3412 -4828.0148
TCL: Setting parameter constraintScaling to 0.0390625
TCL: Minimizing for 100 steps
ETITLE: TS BOND ANGLE DIHED IMPRP ELECT VDW BOUNDARY MISC KINETIC TOTAL TEMP POTENTIAL TOTAL3 TEMPAVG PRESSURE GPRESSURE VOLUME PRESSAVG GPRESSAVG
ENERGY: 800 159.2356 662.0764 2847.3799 0.0000 -201511.6092 21981.1580 42.6572 0.0000 0.0000 -175819.1020 0.0000 -175819.1020 -175819.1020 0.0000 16522.3873 -27140.8030 534946.2959 16522.3873 -27140.8030
ENERGY: 820 189.4085 656.9178 2830.7053 0.0000 -201813.5257 22081.0241 46.0694 0.0000 0.0000 -176009.4007 0.0000 -176009.4007 -176009.4007 0.0000 16489.4949 -4844.6246 534946.2959 16489.4949 -4844.6246
ENERGY: 840 173.9090 660.0306 2830.2082 0.0000 -202155.1966 22217.9849 48.5469 0.0000 0.0000 -176224.5170 0.0000 -176224.5170 -176224.5170 0.0000 16539.6134 -4834.9107 534946.2959 16539.6134 -4834.9107
ENERGY: 860 183.2989 666.1760 2827.0993 0.0000 -202523.4889 22354.3354 49.6062 0.0000 0.0000 -176442.9732 0.0000 -176442.9732 -176442.9732 0.0000 16632.3460 -4799.5190 534946.2959 16632.3460 -4799.5190
ENERGY: 880 173.0189 667.2538 2830.8166 0.0000 -203029.5885 22574.8004 51.0126 0.0000 0.0000 -176732.6862 0.0000 -176732.6862 -176732.6862 0.0000 16750.8285 -4733.2148 534946.2959 16750.8285 -4733.2148
ENERGY: 900 158.3445 650.6683 2827.5302 0.0000 -203113.1132 22601.8480 51.6904 0.0000 0.0000 -176823.0318 0.0000 -176823.0318 -176823.0318 0.0000 16773.8875 -4717.1990 534946.2959 16773.8875 -4717.1990
TCL: Setting parameter constraintScaling to 0.01953125
TCL: Minimizing for 100 steps
ETITLE: TS BOND ANGLE DIHED IMPRP ELECT VDW BOUNDARY MISC KINETIC TOTAL TEMP POTENTIAL TOTAL3 TEMPAVG PRESSURE GPRESSURE VOLUME PRESSAVG GPRESSAVG
ENERGY: 900 158.3445 650.6683 2827.5302 0.0000 -203113.1132 22601.8480 25.8452 0.0000 0.0000 -176848.8770 0.0000 -176848.8770 -176848.8770 0.0000 16796.3073 -27246.3322 534946.2959 16796.3073 -27246.3322
ENERGY: 920 162.8492 652.7707 2820.6683 0.0000 -203401.2730 22718.4128 27.2318 0.0000 0.0000 -177019.3402 0.0000 -177019.3402 -177019.3402 0.0000 16827.7407 -4696.8465 534946.2959 16827.7407 -4696.8465
ENERGY: 940 192.3823 660.1581 2817.7272 0.0000 -203872.0125 22919.0172 28.7389 0.0000 0.0000 -177253.9888 0.0000 -177253.9888 -177253.9888 0.0000 16921.3307 -4656.2580 534946.2959 16921.3307 -4656.2580
ENERGY: 960 166.5390 654.0922 2817.4878 0.0000 -203968.0993 22961.5681 28.8287 0.0000 0.0000 -177339.5834 0.0000 -177339.5834 -177339.5834 0.0000 16951.3686 -4636.5628 534946.2959 16951.3686 -4636.5628
ENERGY: 980 172.1053 658.4595 2816.9352 0.0000 -204260.8410 23085.6968 29.2707 0.0000 0.0000 -177498.3736 0.0000 -177498.3736 -177498.3736 0.0000 17027.4022 -4596.9719 534946.2959 17027.4022 -4596.9719
ENERGY: 1000 166.8994 654.8091 2816.0252 0.0000 -204524.9105 23202.2492 30.0353 0.0000 0.0000 -177654.8923 0.0000 -177654.8923 -177654.8923 0.0000 17079.4266 -4581.6203 534946.2959 17079.4266 -4581.6203
TCL: Setting parameter constraintScaling to 0
TCL: Minimizing for 5000 steps
ETITLE: TS BOND ANGLE DIHED IMPRP ELECT VDW BOUNDARY MISC KINETIC TOTAL TEMP POTENTIAL TOTAL3 TEMPAVG PRESSURE GPRESSURE VOLUME PRESSAVG GPRESSAVG
ENERGY: 1000 166.8994 654.8091 2816.0252 0.0000 -204524.9105 23202.2492 0.0000 0.0000 0.0000 -177684.9276 0.0000 -177684.9276 -177684.9276 0.0000 17104.1702 -27276.7850 534946.2959 17104.1702 -27276.7850
ENERGY: 2000 168.8605 661.3774 2797.9147 0.0000 -214654.3010 27758.6651 0.0000 0.0000 0.0000 -183267.4834 0.0000 -183267.4834 -183267.4834 0.0000 19515.6444 -3287.1552 534946.2959 19515.6444 -3287.1552
ENERGY: 3000 167.1874 665.5867 2797.1162 0.0000 -217461.6328 28912.4144 0.0000 0.0000 0.0000 -184919.3280 0.0000 -184919.3280 -184919.3280 0.0000 20125.2100 -2683.9123 534946.2959 20125.2100 -2683.9123
ENERGY: 4000 165.9033 666.2572 2788.0796 0.0000 -218839.5118 29388.1642 0.0000 0.0000 0.0000 -185831.1074 0.0000 -185831.1074 -185831.1074 0.0000 20377.7210 -2568.0497 534946.2959 20377.7210 -2568.0497
ENERGY: 5000 164.6948 666.2104 2788.0710 0.0000 -219373.9837 29580.3535 0.0000 0.0000 0.0000 -186174.6539 0.0000 -186174.6539 -186174.6539 0.0000 20487.9573 -2510.0321 534946.2959 20487.9573 -2510.0321
ENERGY: 6000 164.4620 666.6215 2789.4598 0.0000 -219882.5805 29802.0516 0.0000 0.0000 0.0000 -186459.9856 0.0000 -186459.9856 -186459.9856 0.0000 20606.4201 -2440.0746 534946.2959 20606.4201 -2440.0746
