Info: SIMULATION PARAMETERS:
Info: TIMESTEP               1
Info: NUMBER OF STEPS        0
Info: STEPS PER CYCLE        10
Info: PERIODIC CELL BASIS 1  72.449 0 0
Info: PERIODIC CELL BASIS 2  0 93.247 0
Info: PERIODIC CELL BASIS 3  0 0 79.185
Info: PERIODIC CELL CENTER   -0.248 -0.156 -0.047
Info: WRAPPING WATERS AROUND PERIODIC BOUNDARIES ON OUTPUT.
Info: WRAPPING ALL CLUSTERS AROUND PERIODIC BOUNDARIES ON OUTPUT.
Info: FIRST LDB TIMESTEP     50
Info: LAST LDB TIMESTEP     -1
Info: HOM BACKGROUND SCALING 1
Info: PME BACKGROUND SCALING 1
Info: MIN ATOMS PER PATCH    40
Info: VELOCITY FILE          ../replicas/rep75/equilibration/eq1.vel
Info: CENTER OF MASS MOVING INITIALLY? NO
Info: DIELECTRIC             1
Info: EXCLUDE                SCALED ONE-FOUR
Info: 1-4 ELECTROSTATICS SCALED BY 0.833333
Info: MODIFIED 1-4 VDW PARAMETERS WILL BE USED
Info: DCD FILENAME           ../replicas/rep75/equilibration/eq2.dcd
Info: DCD FREQUENCY          5000
Info: DCD FIRST STEP         5000
Info: DCD FILE WILL CONTAIN UNIT CELL DATA
Info: XST FILENAME           ../replicas/rep75/equilibration/eq2.xst
Info: XST FREQUENCY          5000
Info: NO VELOCITY DCD OUTPUT
Info: NO FORCE DCD OUTPUT
Info: OUTPUT FILENAME        ../replicas/rep75/equilibration/eq2
Info: RESTART FILENAME       ../replicas/rep75/equilibration/eq2.restart
Info: RESTART FREQUENCY      5000
Info: BINARY RESTART FILES WILL BE USED
Info: SWITCHING ACTIVE
Info: SWITCHING ON           10
Info: SWITCHING OFF          12
Info: PAIRLIST DISTANCE      13.5
Info: PAIRLIST SHRINK RATE   0.01
Info: PAIRLIST GROW RATE     0.01
Info: PAIRLIST TRIGGER       0.3
Info: PAIRLISTS PER CYCLE    2
Info: PAIRLISTS ENABLED
Info: MARGIN                 0.48
Info: HYDROGEN GROUP CUTOFF  2.5
Info: PATCH DIMENSION        16.48
Info: ENERGY OUTPUT STEPS    500
Info: CROSSTERM ENERGY INCLUDED IN DIHEDRAL
Info: TIMING OUTPUT STEPS    5000
Info: PRESSURE OUTPUT STEPS  500
Info: HARMONIC CONSTRAINTS ACTIVE
Info: HARMONIC CONS EXP      2
Info: HARMONIC CONS SCALING  10
Info: LANGEVIN DYNAMICS ACTIVE
Info: LANGEVIN TEMPERATURE   300
Info: LANGEVIN USING BBK INTEGRATOR
Info: LANGEVIN DAMPING COEFFICIENT IS 5 INVERSE PS
Info: LANGEVIN DYNAMICS NOT APPLIED TO HYDROGENS
Info: BERENDSEN PRESSURE COUPLING ACTIVE
Info:     TARGET PRESSURE IS 1 BAR
Info:     COMPRESSIBILITY ESTIMATE IS 4.57e-05 BAR^(-1)
Info:     RELAXATION TIME IS 100 FS
Info:     APPLIED EVERY 2 STEPS
Info:     PRESSURE CONTROL IS GROUP-BASED
Info:       CELL FLUCTUATION IS ISOTROPIC
Info: PARTICLE MESH EWALD (PME) ACTIVE
Info: PME TOLERANCE               1e-06
Info: PME EWALD COEFFICIENT       0.257952
Info: PME INTERPOLATION ORDER     4
Info: PME GRID DIMENSIONS         80 96 80
Info: PME MAXIMUM GRID SPACING    1
Info: FULL ELECTROSTATIC EVALUATION FREQUENCY      2
Info: USING VERLET I (r-RESPA) MTS SCHEME.
Info: C1 SPLITTING OF LONG RANGE ELECTROSTATICS
Info: PLACING ATOMS IN PATCHES BY HYDROGEN GROUPS
Info: RIGID BONDS TO HYDROGEN : WATER
Info:         ERROR TOLERANCE : 1e-05
Info:          MAX ITERATIONS : 100
Info: RIGID WATER USING SETTLE ALGORITHM
Info: RANDOM NUMBER SEED     1503708358
Info: USE HYDROGEN BONDS?    NO
Info: Using AMBER format force field!
Info: AMBER PARM FILE        ../build/complex.top
Info: COORDINATE PDB         ../replicas/rep75/equilibration/eq1.coor
Info: Exclusions in PARM file will be ignored!
Info: SCNB (VDW SCALING)     2
Info: USING ARITHMETIC MEAN TO COMBINE L-J SIGMA PARAMETERS
Info: SUMMARY OF PARAMETERS:
Info: 71 BONDS
Info: 145 ANGLES
Info: 76 DIHEDRAL
Info: 0 IMPROPER
Info: 0 CROSSTERM
Info: 0 VDW
Info: 190 VDW_PAIRS
Info: 0 NBTHOLE_PAIRS
Info: STRUCTURE SUMMARY:
Info: 49394 ATOMS
Info: 49448 BONDS
Info: 8698 ANGLES
Info: 18780 DIHEDRALS
Info: 0 IMPROPERS
Info: 0 CROSSTERMS
Info: 0 EXCLUSIONS
Info: 2336 CONSTRAINTS
Info: 44667 RIGID BONDS
Info: 103515 DEGREES OF FREEDOM
Info: 17225 HYDROGEN GROUPS
Info: 4 ATOMS IN LARGEST HYDROGEN GROUP
Info: 17225 MIGRATION GROUPS
Info: 4 ATOMS IN LARGEST MIGRATION GROUP
Info: TOTAL MASS = 301478 amu
Info: TOTAL CHARGE = 1.00115e-05 e
Info: MASS DENSITY = 0.935846 g/cm^3
Info: ATOM DENSITY = 0.0923345 atoms/A^3
Info: ADDED 70656 IMPLICIT EXCLUSIONS
Info: NONBONDED TABLE R-SQUARED SPACING: 0.0625
Info: NONBONDED TABLE SIZE: 769 POINTS
Info: REMOVING COM VELOCITY -0.0257223 -0.0133822 0.00987357
TCL: Running for 5000 steps
ETITLE: TS BOND ANGLE DIHED IMPRP ELECT VDW BOUNDARY MISC KINETIC TOTAL TEMP POTENTIAL TOTAL3 TEMPAVG PRESSURE GPRESSURE VOLUME PRESSAVG GPRESSAVG
ENERGY: 0 391.2753 1213.3855 2926.4716 0.0000 -212691.3586 29642.6020 0.0000 0.0000 10073.4619 -168444.1623 97.9413 -178517.6242 -168434.5350 97.9413 -2322.8899 -2425.6308 534946.2959 -2322.8899 -2425.6308
ENERGY: 1000 1288.5549 1992.7568 3099.1620 0.0000 -193322.2197 26342.2571 770.6951 0.0000 24062.9329 -135765.8609 233.9568 -159828.7938 -135741.3674 218.6731 -6.4397 -2.5481 521998.9759 -19.0582 -19.3367
ENERGY: 2000 1427.5712 2156.4669 3154.0977 0.0000 -184479.7538 23571.1040 824.7976 0.0000 27682.6588 -125663.0576 269.1503 -153345.7165 -125629.5550 264.2407 20.7242 -12.8296 513793.9239 -21.3353 -21.0745
ENERGY: 3000 1531.8070 2175.4015 3146.1222 0.0000 -179300.2784 21562.6750 781.5919 0.0000 29448.0367 -120654.6441 286.3146 -150102.6809 -120607.5407 283.3954 -52.6730 17.5752 509515.0839 -22.2484 -21.9503
ENERGY: 4000 1498.3685 2288.4748 3153.2791 0.0000 -177145.2618 20685.3101 823.7485 0.0000 30588.5460 -118107.5348 297.4034 -148696.0808 -118062.1795 293.2636 7.3408 12.3946 506436.4405 -4.8559 -4.9503
ENERGY: 5000 1584.6810 2273.0956 3127.8632 0.0000 -176126.6305 20546.9697 781.3072 0.0000 30787.9182 -117024.7956 299.3418 -147812.7138 -116969.4073 298.1527 -139.4002 1.9570 504328.7421 4.3578 4.2346
TCL: Setting parameter constraintScaling to 5.0
TCL: Running for 5000 steps
ETITLE: TS BOND ANGLE DIHED IMPRP ELECT VDW BOUNDARY MISC KINETIC TOTAL TEMP POTENTIAL TOTAL3 TEMPAVG PRESSURE GPRESSURE VOLUME PRESSAVG GPRESSAVG
ENERGY: 5000 1584.6810 2273.0956 3127.8632 0.0000 -176126.6305 20546.9697 390.6536 0.0000 30785.8795 -117417.4878 299.3220 -148203.3674 -117376.7832 299.3220 -163.7854 -34.0211 504328.7421 -163.7854 -34.0211
ENERGY: 6000 1569.3869 2305.6672 3182.9647 0.0000 -175556.3659 20203.4071 643.7571 0.0000 30624.8799 -117026.3031 297.7567 -147651.1830 -116989.2689 297.9733 -22.1569 35.7287 504947.5018 13.3082 12.6994
ENERGY: 7000 1599.8611 2287.9304 3148.2364 0.0000 -175732.9582 20285.9866 649.2596 0.0000 30525.8444 -117235.8396 296.7938 -147761.6840 -117192.6559 297.9622 -29.7559 3.5225 502479.3231 -10.3996 -10.9893
ENERGY: 8000 1640.2421 2315.3362 3183.7138 0.0000 -175779.2450 20203.7623 643.0722 0.0000 30971.4769 -116821.6415 301.1265 -147793.1184 -116778.2827 299.8465 -128.1549 -71.4810 502310.6365 -5.8173 -6.6823
ENERGY: 9000 1562.6582 2293.5151 3162.0159 0.0000 -175806.8370 20314.7008 635.8595 0.0000 31081.0234 -116757.0641 302.1916 -147838.0875 -116706.2651 299.7113 -8.9846 9.0541 501160.8465 -5.1989 -5.2734
ENERGY: 10000 1597.3141 2307.4883 3134.7484 0.0000 -175032.0629 19920.7619 653.0093 0.0000 30757.8067 -116660.9342 299.0491 -147418.7409 -116613.2783 298.8820 0.1173 -8.4524 501460.9313 13.5647 13.3077
TCL: Setting parameter constraintScaling to 2.5
TCL: Running for 5000 steps
ETITLE: TS BOND ANGLE DIHED IMPRP ELECT VDW BOUNDARY MISC KINETIC TOTAL TEMP POTENTIAL TOTAL3 TEMPAVG PRESSURE GPRESSURE VOLUME PRESSAVG GPRESSAVG
ENERGY: 10000 1597.3141 2307.4883 3134.7484 0.0000 -175032.0629 19920.7619 326.5047 0.0000 30755.7717 -116989.4738 299.0293 -147745.2455 -116945.9642 299.0293 -33.9768 -50.7294 501460.9313 -33.9768 -50.7294
ENERGY: 11000 1667.3081 2370.9824 3167.6390 0.0000 -174617.8697 19658.5335 501.3821 0.0000 30759.4054 -116492.6192 299.0646 -147252.0247 -116454.3307 300.9245 -76.0347 -20.9042 500737.4965 -1.8160 -1.8708
ENERGY: 12000 1616.1108 2380.0719 3206.9671 0.0000 -175254.2386 19996.2269 512.0114 0.0000 30855.1165 -116687.7341 299.9952 -147542.8506 -116650.9457 301.9541 -102.4269 16.3088 501209.5107 6.1803 5.9796
ENERGY: 13000 1649.4811 2418.1731 3195.7984 0.0000 -175164.1084 19756.4649 498.5290 0.0000 30695.7615 -116949.9005 298.4458 -147645.6620 -116899.3994 300.5834 10.8846 -25.2914 499838.4223 5.7603 5.5170
ENERGY: 14000 1608.9644 2336.9587 3186.1277 0.0000 -175697.4265 20079.6037 522.7929 0.0000 30978.1212 -116984.8580 301.1911 -147962.9792 -116947.8460 299.3667 -20.2859 -27.7114 501108.0214 8.2551 8.3374
ENERGY: 15000 1645.8448 2341.4197 3191.4320 0.0000 -175833.2218 20081.7699 521.0506 0.0000 30814.9996 -117236.7052 299.6051 -148051.7047 -117184.3070 298.7583 -43.1657 -4.6734 499870.0577 -0.5531 -0.6446
TCL: Setting parameter constraintScaling to 1.25
TCL: Running for 5000 steps
ETITLE: TS BOND ANGLE DIHED IMPRP ELECT VDW BOUNDARY MISC KINETIC TOTAL TEMP POTENTIAL TOTAL3 TEMPAVG PRESSURE GPRESSURE VOLUME PRESSAVG GPRESSAVG
ENERGY: 15000 1645.8448 2341.4197 3191.4320 0.0000 -175833.2218 20081.7699 260.5253 0.0000 30812.9361 -117499.2939 299.5851 -148312.2301 -117458.0600 299.5851 -104.1428 -71.3717 499870.0577 -104.1428 -71.3717
ENERGY: 16000 1615.7616 2416.2508 3191.1700 0.0000 -175610.9502 19968.5464 406.3160 0.0000 30839.7626 -117173.1427 299.8459 -148012.9053 -117127.5718 298.4105 -81.1173 -75.5167 499656.7798 2.6906 2.8535
ENERGY: 17000 1695.9919 2355.9721 3184.2563 0.0000 -175789.4931 20014.4950 415.2231 0.0000 30989.6354 -117133.9192 301.3031 -148123.5546 -117089.9420 300.5871 -43.7445 7.8278 498763.1492 0.5075 0.5610
ENERGY: 18000 1694.1072 2340.4388 3182.1133 0.0000 -175805.8457 20191.7747 408.3932 0.0000 30934.3714 -117054.6472 300.7658 -147989.0186 -117014.8422 299.8737 1.2852 63.1050 499336.4226 9.9039 10.1979
ENERGY: 19000 1654.4156 2391.2158 3174.4944 0.0000 -175732.2101 20045.5679 413.8517 0.0000 30804.0200 -117248.6448 299.4984 -148052.6648 -117201.5381 300.6953 4.9226 -0.3698 497912.9766 -4.5234 -4.2132
ENERGY: 20000 1684.0584 2363.7818 3222.2672 0.0000 -175458.6593 19921.5686 428.5855 0.0000 30921.7693 -116916.6284 300.6432 -147838.3977 -116861.0601 300.5672 -137.6145 -20.8516 498865.5444 11.2399 10.8710
TCL: Setting parameter constraintScaling to 0.625
TCL: Running for 5000 steps
ETITLE: TS BOND ANGLE DIHED IMPRP ELECT VDW BOUNDARY MISC KINETIC TOTAL TEMP POTENTIAL TOTAL3 TEMPAVG PRESSURE GPRESSURE VOLUME PRESSAVG GPRESSAVG
ENERGY: 20000 1684.0584 2363.7818 3222.2672 0.0000 -175458.6593 19921.5686 214.2928 0.0000 30919.7162 -117132.9742 300.6233 -148052.6905 -117087.1717 300.6233 -218.6433 -104.3677 498865.5444 -218.6433 -104.3677
ENERGY: 21000 1695.0957 2391.6947 3227.5693 0.0000 -175672.9161 19999.2990 320.1211 0.0000 30903.3411 -117135.7953 300.4641 -148039.1364 -117090.1281 300.3901 -13.8019 44.3154 498452.4539 -5.0582 -5.0055
ENERGY: 22000 1600.5967 2453.9521 3213.6047 0.0000 -175440.3229 19943.8805 314.6303 0.0000 30920.4116 -116993.2470 300.6300 -147913.6585 -116946.0892 301.0246 55.1306 102.2331 497934.4130 -3.2446 -3.9895
ENERGY: 23000 1616.2535 2415.5533 3159.9664 0.0000 -175940.7917 20153.3154 300.5297 0.0000 30832.4995 -117462.6739 299.7753 -148295.1734 -117430.2929 300.4541 -37.9002 -3.0609 498381.4259 0.1474 0.0146
ENERGY: 24000 1612.7348 2369.7672 3170.9383 0.0000 -175436.7233 19801.4548 320.9943 0.0000 30695.1817 -117465.6521 298.4402 -148160.8338 -117412.5180 298.9132 -55.7532 -65.4762 496916.4756 -9.1044 -8.8446
ENERGY: 25000 1607.6008 2426.3590 3194.7490 0.0000 -176026.0917 20072.6241 333.0557 0.0000 30869.4980 -117522.2049 300.1350 -148391.7029 -117477.1793 299.2908 -59.0367 -74.5330 499372.7588 11.8916 11.9638
TCL: Setting parameter constraintScaling to 0.3125
TCL: Running for 5000 steps
ETITLE: TS BOND ANGLE DIHED IMPRP ELECT VDW BOUNDARY MISC KINETIC TOTAL TEMP POTENTIAL TOTAL3 TEMPAVG PRESSURE GPRESSURE VOLUME PRESSAVG GPRESSAVG
ENERGY: 25000 1607.6008 2426.3590 3194.7490 0.0000 -176026.0917 20072.6241 166.5279 0.0000 30867.4654 -117690.7654 300.1153 -148558.2308 -117649.0565 300.1153 -89.3295 -102.7487 499372.7588 -89.3295 -102.7487
ENERGY: 26000 1652.2941 2389.0181 3209.9127 0.0000 -175994.8103 20206.3475 263.7292 0.0000 30952.0027 -117321.5060 300.9372 -148273.5087 -117281.7614 299.7377 -26.1782 6.5604 498674.3523 -3.7269 -3.8190
ENERGY: 27000 1610.6571 2440.7990 3198.7385 0.0000 -175738.3096 19881.8571 243.0543 0.0000 30937.1087 -117426.0948 300.7924 -148363.2035 -117372.4736 299.9470 -36.8337 -27.8743 498184.4237 7.7583 8.4392
ENERGY: 28000 1659.4244 2348.0738 3183.8801 0.0000 -175476.8420 19941.1160 243.5730 0.0000 30919.4811 -117181.2936 300.6210 -148100.7746 -117136.9137 300.1862 -24.7593 34.0153 498010.7042 0.0970 0.3790
ENERGY: 29000 1586.6000 2439.7282 3225.4333 0.0000 -175723.8319 19999.1307 243.9024 0.0000 30826.4018 -117402.6356 299.7160 -148229.0375 -117355.9974 300.2871 -11.5185 22.4012 498776.1971 10.1452 10.4193
ENERGY: 30000 1627.9155 2364.9903 3216.6182 0.0000 -176078.2331 20163.7796 267.1217 0.0000 30943.2778 -117494.5300 300.8524 -148437.8078 -117440.7493 299.9765 -35.8108 -51.1522 497917.1020 1.0695 1.4546
TCL: Setting parameter constraintScaling to 0.15625
TCL: Running for 5000 steps
ETITLE: TS BOND ANGLE DIHED IMPRP ELECT VDW BOUNDARY MISC KINETIC TOTAL TEMP POTENTIAL TOTAL3 TEMPAVG PRESSURE GPRESSURE VOLUME PRESSAVG GPRESSAVG
ENERGY: 30000 1627.9155 2364.9903 3216.6182 0.0000 -176078.2332 20163.7796 133.5608 0.0000 30941.2294 -117630.1392 300.8324 -148571.3686 -117580.9478 300.8324 -49.6272 -59.5386 497917.1020 -49.6272 -59.5386
ENERGY: 31000 1638.3914 2406.2010 3237.9604 0.0000 -176357.8063 20174.8823 205.7341 0.0000 30892.9408 -117801.6964 300.3629 -148694.6372 -117750.8377 298.9604 12.7281 -26.3034 497385.4548 -2.8289 -3.3176
ENERGY: 32000 1564.8461 2411.5756 3221.7551 0.0000 -175791.2111 20082.6230 199.5351 0.0000 30643.0190 -117667.8571 297.9330 -148310.8761 -117627.2442 299.2731 46.6240 80.7227 498200.4885 1.8484 1.7960
ENERGY: 33000 1653.4686 2365.6089 3181.6672 0.0000 -176121.4941 20166.0302 187.5304 0.0000 30746.4712 -117820.7178 298.9389 -148567.1890 -117774.0607 298.9552 0.0768 -38.8557 497334.5452 -4.6821 -5.2600
ENERGY: 34000 1686.1658 2383.2117 3241.7891 0.0000 -176101.9723 20000.9406 205.6704 0.0000 30577.9105 -118006.2842 297.3000 -148584.1947 -117950.0897 298.5179 -106.1588 -50.2770 497522.2178 -1.0980 -0.8367
ENERGY: 35000 1610.7716 2313.6200 3230.9417 0.0000 -175982.1393 19890.2587 222.6529 0.0000 30863.0052 -117850.8891 300.0719 -148713.8943 -117806.1895 298.3941 -153.2302 -100.8981 496999.8587 5.8244 5.8699
TCL: Setting parameter constraintScaling to 0.078125
TCL: Running for 5000 steps
ETITLE: TS BOND ANGLE DIHED IMPRP ELECT VDW BOUNDARY MISC KINETIC TOTAL TEMP POTENTIAL TOTAL3 TEMPAVG PRESSURE GPRESSURE VOLUME PRESSAVG GPRESSAVG
ENERGY: 35000 1610.7716 2313.6200 3230.9417 0.0000 -175982.1393 19890.2587 111.3265 0.0000 30860.9653 -117964.2554 300.0521 -148825.2207 -117920.9782 300.0521 -204.3715 -145.4681 496999.8587 -204.3715 -145.4681
ENERGY: 36000 1605.5482 2404.4438 3208.4743 0.0000 -175763.1856 19883.0671 139.9583 0.0000 30710.0962 -117811.5977 298.5852 -148521.6938 -117775.6133 298.6352 -39.6214 -35.0411 496501.4825 1.5293 1.6484
ENERGY: 37000 1615.2437 2353.6717 3227.8069 0.0000 -175941.4155 20090.7185 149.0997 0.0000 30908.1443 -117596.7307 300.5108 -148504.8750 -117550.4477 299.9868 -3.1541 -10.3400 497125.9023 1.7140 1.8635
ENERGY: 38000 1673.0409 2440.1193 3203.2376 0.0000 -176039.6293 20284.1816 167.0371 0.0000 30889.7498 -117382.2629 300.3319 -148272.0127 -117331.7499 299.7785 71.2682 68.7767 496978.6144 -4.9193 -5.0131
ENERGY: 39000 1598.7825 2394.3897 3277.6117 0.0000 -175912.6545 20062.9754 165.2620 0.0000 30918.4979 -117495.1353 300.6114 -148413.6332 -117454.7323 300.5289 -17.9335 -35.7143 495853.2682 -10.6648 -10.2642
ENERGY: 40000 1641.3140 2409.2197 3189.7016 0.0000 -175633.9789 19960.6912 152.1173 0.0000 30908.6702 -117372.2649 300.5159 -148280.9351 -117327.8918 299.4713 7.8111 56.0423 496024.4640 -11.0957 -10.8145
TCL: Setting parameter constraintScaling to 0.0390625
TCL: Running for 5000 steps
ETITLE: TS BOND ANGLE DIHED IMPRP ELECT VDW BOUNDARY MISC KINETIC TOTAL TEMP POTENTIAL TOTAL3 TEMPAVG PRESSURE GPRESSURE VOLUME PRESSAVG GPRESSAVG
ENERGY: 40000 1641.3140 2409.2197 3189.7016 0.0000 -175633.9789 19960.6912 76.0587 0.0000 30906.6100 -117450.3838 300.4958 -148356.9938 -117408.2770 300.4958 -2.6456 49.0792 496024.4640 -2.6456 49.0792
ENERGY: 41000 1659.8771 2418.0573 3223.4832 0.0000 -176041.9367 20129.7229 115.4241 0.0000 30922.8312 -117572.5409 300.6536 -148495.3721 -117525.4607 299.8678 -140.8788 -12.6937 496629.4799 16.7668 17.3563
ENERGY: 42000 1675.2442 2462.8443 3271.3524 0.0000 -176161.7524 20200.5644 122.9901 0.0000 30581.1232 -117847.6338 297.3312 -148428.7571 -117810.0496 299.9426 -39.8186 18.9943 495320.7620 -7.1307 -7.1746
ENERGY: 43000 1628.6943 2354.2176 3224.8181 0.0000 -175679.1635 19943.8885 110.4893 0.0000 30807.4740 -117609.5818 299.5320 -148417.0558 -117561.7744 299.9568 -56.5202 -8.5843 495922.2740 -3.7461 -3.9513
ENERGY: 44000 1688.0988 2320.7288 3218.0222 0.0000 -175462.6609 19823.4543 132.0227 0.0000 30698.8982 -117581.4359 298.4763 -148280.3341 -117528.6891 299.1196 -94.7296 -67.6716 495468.5614 3.5287 3.5959
ENERGY: 45000 1649.4982 2398.9940 3179.9940 0.0000 -176212.0491 20288.6270 119.6997 0.0000 30817.5566 -117757.6796 299.6300 -148575.2362 -117715.0920 298.9778 12.0218 6.3487 497409.6499 13.1932 13.4446
TCL: Setting parameter constraintScaling to 0.01953125
TCL: Running for 5000 steps
ETITLE: TS BOND ANGLE DIHED IMPRP ELECT VDW BOUNDARY MISC KINETIC TOTAL TEMP POTENTIAL TOTAL3 TEMPAVG PRESSURE GPRESSURE VOLUME PRESSAVG GPRESSAVG
ENERGY: 45000 1649.4982 2398.9940 3179.9940 0.0000 -176212.0491 20288.6270 59.8498 0.0000 30815.5017 -117819.5843 299.6100 -148635.0860 -117776.9043 299.6100 -4.5301 -5.4113 497409.6499 -4.5301 -5.4113
ENERGY: 46000 1601.3587 2409.1062 3171.5689 0.0000 -175952.6880 20144.7880 74.0260 0.0000 30722.7528 -117829.0875 298.7083 -148551.8403 -117777.6229 299.0309 72.5204 92.8375 497884.0623 8.7648 8.9636
ENERGY: 47000 1610.8741 2478.0893 3176.3833 0.0000 -175801.3510 19947.8888 86.4759 0.0000 30696.4362 -117805.2034 298.4524 -148501.6396 -117757.2303 298.0948 -97.9169 -88.0269 496837.8067 0.5487 0.4029
ENERGY: 48000 1641.2809 2404.8847 3174.8332 0.0000 -175900.1167 19956.8935 85.6937 0.0000 31009.2503 -117627.2805 301.4938 -148636.5308 -117582.5535 299.3784 -31.9042 -12.5093 497155.2074 5.9851 5.9043
ENERGY: 49000 1664.3509 2422.5753 3187.5606 0.0000 -175483.4995 19892.2851 82.6182 0.0000 30997.1548 -117236.9546 301.3762 -148234.1094 -117185.6008 300.6761 -62.3152 -16.9699 496634.3339 -9.0003 -8.9052
ENERGY: 50000 1624.6552 2393.8346 3193.5724 0.0000 -175612.4865 19962.5960 89.2320 0.0000 30854.5692 -117494.0270 299.9899 -148348.5962 -117455.2472 300.7300 3.4148 19.6808 496977.9679 7.5861 8.0406
TCL: Setting parameter constraintScaling to 0
TCL: Running for 5000 steps
ETITLE: TS BOND ANGLE DIHED IMPRP ELECT VDW BOUNDARY MISC KINETIC TOTAL TEMP POTENTIAL TOTAL3 TEMPAVG PRESSURE GPRESSURE VOLUME PRESSAVG GPRESSAVG
ENERGY: 50000 1624.6552 2393.8346 3193.5724 0.0000 -175612.4864 19962.5960 0.0000 0.0000 30852.5382 -117585.2900 299.9701 -148437.8282 -117539.0224 299.9701 -29.5644 -8.0071 496977.9679 -29.5644 -8.0071
ENERGY: 51000 1657.0788 2466.9870 3160.1966 0.0000 -175135.6390 19711.4435 0.0000 0.0000 30720.1721 -117419.7610 298.6832 -148139.9331 -117379.6372 300.9522 -37.4040 -27.0373 496054.7317 -7.8042 -7.4434
ENERGY: 52000 1633.8038 2435.6461 3203.5845 0.0000 -175873.6143 20079.2018 0.0000 0.0000 30864.7841 -117656.5939 300.0892 -148521.3780 -117611.4297 300.8457 13.1646 36.4483 496717.1027 10.1992 10.9378
ENERGY: 53000 1642.1307 2391.1911 3229.2292 0.0000 -175941.8800 20042.2881 0.0000 0.0000 31067.1652 -117569.8757 302.0569 -148637.0409 -117518.3187 300.1843 -31.6119 -68.7520 496917.5621 1.3251 2.1466
ENERGY: 54000 1579.7281 2512.7914 3225.9279 0.0000 -176034.8816 20100.2667 0.0000 0.0000 30915.2403 -117700.9272 300.5798 -148616.1675 -117653.9468 300.4199 96.1404 94.9859 497376.9193 8.0186 7.8711
ENERGY: 55000 1640.7017 2412.7160 3203.3244 0.0000 -175847.4937 19966.6032 0.0000 0.0000 31037.2826 -117586.8658 301.7663 -148624.1485 -117534.6887 300.6849 -93.2965 -45.9808 496196.1689 -12.0266 -12.2837
