Info: SIMULATION PARAMETERS:
Info: TIMESTEP               2
Info: NUMBER OF STEPS        0
Info: STEPS PER CYCLE        10
Info: PERIODIC CELL BASIS 1  72.449 0 0
Info: PERIODIC CELL BASIS 2  0 93.247 0
Info: PERIODIC CELL BASIS 3  0 0 79.185
Info: PERIODIC CELL CENTER   -0.248 -0.156 -0.047
Info: WRAPPING WATERS AROUND PERIODIC BOUNDARIES ON OUTPUT.
Info: WRAPPING ALL CLUSTERS AROUND PERIODIC BOUNDARIES ON OUTPUT.
Info: FIRST LDB TIMESTEP     50
Info: LAST LDB TIMESTEP     -1
Info: HOM BACKGROUND SCALING 1
Info: PME BACKGROUND SCALING 1
Info: MIN ATOMS PER PATCH    40
Info: INITIAL TEMPERATURE    0
Info: CENTER OF MASS MOVING INITIALLY? NO
Info: DIELECTRIC             1
Info: EXCLUDE                SCALED ONE-FOUR
Info: 1-4 ELECTROSTATICS SCALED BY 0.833333
Info: MODIFIED 1-4 VDW PARAMETERS WILL BE USED
Info: NO DCD TRAJECTORY OUTPUT
Info: NO EXTENDED SYSTEM TRAJECTORY OUTPUT
Info: NO VELOCITY DCD OUTPUT
Info: NO FORCE DCD OUTPUT
Info: OUTPUT FILENAME        ../replicas/rep39/equilibration/eq0
Info: NO RESTART FILE
Info: SWITCHING ACTIVE
Info: SWITCHING ON           10
Info: SWITCHING OFF          12
Info: PAIRLIST DISTANCE      13.5
Info: PAIRLIST SHRINK RATE   0.01
Info: PAIRLIST GROW RATE     0.01
Info: PAIRLIST TRIGGER       0.3
Info: PAIRLISTS PER CYCLE    2
Info: PAIRLISTS ENABLED
Info: MARGIN                 0
Info: HYDROGEN GROUP CUTOFF  2.5
Info: PATCH DIMENSION        16
Info: ENERGY OUTPUT STEPS    500
Info: CROSSTERM ENERGY INCLUDED IN DIHEDRAL
Info: TIMING OUTPUT STEPS    5000
Info: PRESSURE OUTPUT STEPS  500
Info: HARMONIC CONSTRAINTS ACTIVE
Info: HARMONIC CONS EXP      2
Info: HARMONIC CONS SCALING  10
Info: CONJUGATE GRADIENT MINIMIZATION ACTIVE
Info: LINE MINIMIZATION GOAL = 0.001
Info: BABY STEP SIZE = 0.01
Info: TINY STEP SIZE = 1e-06
Info: PARTICLE MESH EWALD (PME) ACTIVE
Info: PME TOLERANCE               1e-06
Info: PME EWALD COEFFICIENT       0.257952
Info: PME INTERPOLATION ORDER     4
Info: PME GRID DIMENSIONS         80 96 80
Info: PME MAXIMUM GRID SPACING    1
Info: FULL ELECTROSTATIC EVALUATION FREQUENCY      2
Info: USING VERLET I (r-RESPA) MTS SCHEME.
Info: C1 SPLITTING OF LONG RANGE ELECTROSTATICS
Info: PLACING ATOMS IN PATCHES BY HYDROGEN GROUPS
Info: RIGID BONDS TO HYDROGEN : ALL
Info:         ERROR TOLERANCE : 1e-05
Info:          MAX ITERATIONS : 100
Info: RIGID WATER USING SETTLE ALGORITHM
Info: RANDOM NUMBER SEED     1503694077
Info: USE HYDROGEN BONDS?    NO
Info: Using AMBER format force field!
Info: AMBER PARM FILE        ../build/complex.top
Info: COORDINATE PDB         ../build/complex.pdb
Info: Exclusions in PARM file will be ignored!
Info: SCNB (VDW SCALING)     2
Info: USING ARITHMETIC MEAN TO COMBINE L-J SIGMA PARAMETERS
Info: SUMMARY OF PARAMETERS:
Info: 71 BONDS
Info: 145 ANGLES
Info:   145 HARMONIC
Info:   0 COSINE-BASED
Info: 76 DIHEDRAL
Info: 0 IMPROPER
Info: 0 CROSSTERM
Info: 0 VDW
Info: 190 VDW_PAIRS
Info: 0 NBTHOLE_PAIRS
Info: STRUCTURE SUMMARY:
Info: 49394 ATOMS
Info: 49448 BONDS
Info: 8698 ANGLES
Info: 18780 DIHEDRALS
Info: 0 IMPROPERS
Info: 0 CROSSTERMS
Info: 0 EXCLUSIONS
Info: 2336 CONSTRAINTS
Info: 47058 RIGID BONDS
Info: 101124 DEGREES OF FREEDOM
Info: 17225 HYDROGEN GROUPS
Info: 4 ATOMS IN LARGEST HYDROGEN GROUP
Info: 17225 MIGRATION GROUPS
Info: 4 ATOMS IN LARGEST MIGRATION GROUP
Info: TOTAL MASS = 301478 amu
Info: TOTAL CHARGE = 1.00115e-05 e
Info: MASS DENSITY = 0.935846 g/cm^3
Info: ATOM DENSITY = 0.0923345 atoms/A^3
Info: ADDED 70656 IMPLICIT EXCLUSIONS
Info: NONBONDED TABLE R-SQUARED SPACING: 0.0625
Info: NONBONDED TABLE SIZE: 769 POINTS
Info: REMOVING COM VELOCITY 0 0 0
TCL: Minimizing for 100 steps
ETITLE: TS BOND ANGLE DIHED IMPRP ELECT VDW BOUNDARY MISC KINETIC TOTAL TEMP POTENTIAL TOTAL3 TEMPAVG PRESSURE GPRESSURE VOLUME PRESSAVG GPRESSAVG
ENERGY: 0 155.4176 1012.2698 2855.7272 0.0000 -154496.7911 207729.2052 0.0468 0.0000 0.0000 57255.8755 0.0000 57255.8755 57255.8755 0.0000 116350.2532 86546.1670 534946.2959 116350.2532 86546.1670
ENERGY: 20 304.7552 935.7912 2893.4663 0.0000 -158672.9406 17936.6594 143.9454 0.0000 0.0000 -136458.3231 0.0000 -136458.3231 -136458.3231 0.0000 16523.9387 -239.4558 534946.2959 16523.9387 -239.4558
ENERGY: 40 198.7442 799.5727 2896.9273 0.0000 -162811.4531 16417.9537 221.3030 0.0000 0.0000 -142276.9522 0.0000 -142276.9522 -142276.9522 0.0000 15011.2703 -2135.4698 534946.2959 15011.2703 -2135.4698
ENERGY: 60 130.5283 715.3440 2898.2166 0.0000 -167496.1559 15446.7541 315.2796 0.0000 0.0000 -147990.0333 0.0000 -147990.0333 -147990.0333 0.0000 13793.8839 -3799.3983 534946.2959 13793.8839 -3799.3983
ENERGY: 80 431.2725 765.6308 2904.3785 0.0000 -169937.5249 15121.1529 372.0121 0.0000 0.0000 -150343.0781 0.0000 -150343.0781 -150343.0781 0.0000 13270.3317 -4577.2434 534946.2959 13270.3317 -4577.2434
ENERGY: 100 129.7150 708.0655 2904.2780 0.0000 -171050.0681 15018.6530 384.2000 0.0000 0.0000 -151905.1566 0.0000 -151905.1566 -151905.1566 0.0000 13092.9124 -4843.6325 534946.2959 13092.9124 -4843.6325
TCL: Setting parameter constraintScaling to 5.0
TCL: Minimizing for 100 steps
ETITLE: TS BOND ANGLE DIHED IMPRP ELECT VDW BOUNDARY MISC KINETIC TOTAL TEMP POTENTIAL TOTAL3 TEMPAVG PRESSURE GPRESSURE VOLUME PRESSAVG GPRESSAVG
ENERGY: 100 129.7150 708.0655 2904.2780 0.0000 -171050.0681 15018.6530 192.1000 0.0000 0.0000 -152097.2566 0.0000 -152097.2566 -152097.2566 0.0000 13703.5076 -22944.4553 534946.2959 13703.5076 -22944.4553
ENERGY: 120 118.6823 680.2877 2909.9066 0.0000 -172396.3182 14830.1202 259.9550 0.0000 0.0000 -153597.3664 0.0000 -153597.3664 -153597.3664 0.0000 13320.9466 -4756.3084 534946.2959 13320.9466 -4756.3084
ENERGY: 140 109.1489 671.1468 2912.0863 0.0000 -174830.2854 14716.1437 337.7314 0.0000 0.0000 -156084.0282 0.0000 -156084.0282 -156084.0282 0.0000 12908.9553 -5423.1525 534946.2959 12908.9553 -5423.1525
ENERGY: 160 125.8565 667.1493 2914.1927 0.0000 -175967.0086 14735.1326 362.9180 0.0000 0.0000 -157161.7595 0.0000 -157161.7595 -157161.7595 0.0000 12806.8999 -5638.0553 534946.2959 12806.8999 -5638.0553
ENERGY: 180 303.5179 659.6767 2917.2964 0.0000 -177408.6685 14815.0119 395.3819 0.0000 0.0000 -158317.7835 0.0000 -158317.7835 -158317.7835 0.0000 12699.3190 -5895.0379 534946.2959 12699.3190 -5895.0379
ENERGY: 200 109.2081 628.4754 2923.3592 0.0000 -179544.0114 15071.1833 441.8872 0.0000 0.0000 -160369.8984 0.0000 -160369.8984 -160369.8984 0.0000 12659.9895 -6155.8545 534946.2959 12659.9895 -6155.8545
TCL: Setting parameter constraintScaling to 2.5
TCL: Minimizing for 100 steps
ETITLE: TS BOND ANGLE DIHED IMPRP ELECT VDW BOUNDARY MISC KINETIC TOTAL TEMP POTENTIAL TOTAL3 TEMPAVG PRESSURE GPRESSURE VOLUME PRESSAVG GPRESSAVG
ENERGY: 200 109.2081 628.4754 2923.3592 0.0000 -179544.0114 15071.1833 220.9436 0.0000 0.0000 -160590.8420 0.0000 -160590.8420 -160590.8420 0.0000 13208.4169 -25275.0109 534946.2959 13208.4169 -25275.0109
ENERGY: 220 169.1962 639.7558 2924.9594 0.0000 -180453.6398 15113.9312 291.2936 0.0000 0.0000 -161314.5036 0.0000 -161314.5036 -161314.5036 0.0000 13002.3660 -5918.5865 534946.2959 13002.3660 -5918.5865
ENERGY: 240 251.7852 643.1449 2921.4014 0.0000 -181893.8016 15358.8260 339.5524 0.0000 0.0000 -162379.0916 0.0000 -162379.0916 -162379.0916 0.0000 12964.0238 -6111.6096 534946.2959 12964.0238 -6111.6096
ENERGY: 260 174.2111 638.9991 2923.9248 0.0000 -184181.1000 15907.7942 437.5499 0.0000 0.0000 -164098.6209 0.0000 -164098.6209 -164098.6209 0.0000 13009.0011 -6309.8243 534946.2959 13009.0011 -6309.8243
ENERGY: 280 149.2138 649.0377 2918.1899 0.0000 -184716.3955 16069.9521 427.6653 0.0000 0.0000 -164502.3367 0.0000 -164502.3367 -164502.3367 0.0000 13128.4349 -6264.1659 534946.2959 13128.4349 -6264.1659
ENERGY: 300 232.9475 694.1392 2927.8184 0.0000 -186446.9470 16634.7522 426.2021 0.0000 0.0000 -165531.0876 0.0000 -165531.0876 -165531.0876 0.0000 13384.8362 -6204.1857 534946.2959 13384.8362 -6204.1857
TCL: Setting parameter constraintScaling to 1.25
TCL: Minimizing for 100 steps
ETITLE: TS BOND ANGLE DIHED IMPRP ELECT VDW BOUNDARY MISC KINETIC TOTAL TEMP POTENTIAL TOTAL3 TEMPAVG PRESSURE GPRESSURE VOLUME PRESSAVG GPRESSAVG
ENERGY: 300 232.9475 694.1392 2927.8184 0.0000 -186446.9470 16634.7522 213.1011 0.0000 0.0000 -165744.1886 0.0000 -165744.1886 -165744.1886 0.0000 13795.4388 -26291.8781 534946.2959 13795.4388 -26291.8781
ENERGY: 320 166.3674 648.4221 2910.8454 0.0000 -186878.4184 16722.5531 245.0809 0.0000 0.0000 -166185.1497 0.0000 -166185.1497 -166185.1497 0.0000 13784.5782 -5845.4747 534946.2959 13784.5782 -5845.4747
ENERGY: 340 156.8265 674.9272 2917.2769 0.0000 -188372.7433 17127.9850 350.6875 0.0000 0.0000 -167145.0403 0.0000 -167145.0403 -167145.0403 0.0000 13722.0274 -6057.5643 534946.2959 13722.0274 -6057.5643
ENERGY: 360 154.8117 659.8847 2903.3504 0.0000 -188870.5234 17312.2669 347.2581 0.0000 0.0000 -167492.9516 0.0000 -167492.9516 -167492.9516 0.0000 13845.8443 -6005.1952 534946.2959 13845.8443 -6005.1952
ENERGY: 380 136.9136 633.6589 2910.9375 0.0000 -189914.3966 17704.3713 341.4928 0.0000 0.0000 -168187.0224 0.0000 -168187.0224 -168187.0224 0.0000 14068.8908 -5901.5416 534946.2959 14068.8908 -5901.5416
ENERGY: 400 217.3038 687.4319 2905.9590 0.0000 -191891.9395 18516.5732 383.3865 0.0000 0.0000 -169181.2851 0.0000 -169181.2851 -169181.2851 0.0000 14417.1969 -5796.1331 534946.2959 14417.1969 -5796.1331
TCL: Setting parameter constraintScaling to 0.625
TCL: Minimizing for 100 steps
ETITLE: TS BOND ANGLE DIHED IMPRP ELECT VDW BOUNDARY MISC KINETIC TOTAL TEMP POTENTIAL TOTAL3 TEMPAVG PRESSURE GPRESSURE VOLUME PRESSAVG GPRESSAVG
ENERGY: 400 217.3038 687.4319 2905.9590 0.0000 -191891.9395 18516.5732 191.6932 0.0000 0.0000 -169372.9783 0.0000 -169372.9783 -169372.9783 0.0000 14714.6779 -26659.9833 534946.2959 14714.6779 -26659.9833
ENERGY: 420 136.5547 622.6883 2893.5037 0.0000 -192092.0268 18556.0524 204.8439 0.0000 0.0000 -169678.3838 0.0000 -169678.3838 -169678.3838 0.0000 14688.8862 -5521.3520 534946.2959 14688.8862 -5521.3520
ENERGY: 440 197.2225 681.2630 2890.4747 0.0000 -192875.7792 18758.9085 260.1436 0.0000 0.0000 -170087.7669 0.0000 -170087.7669 -170087.7669 0.0000 14652.6136 -5656.3804 534946.2959 14652.6136 -5656.3804
ENERGY: 460 161.4773 681.1972 2882.0244 0.0000 -194201.7572 19238.7023 324.0499 0.0000 0.0000 -170914.3061 0.0000 -170914.3061 -170914.3061 0.0000 14786.9458 -5661.0987 534946.2959 14786.9458 -5661.0987
ENERGY: 480 157.2596 669.6041 2887.8124 0.0000 -194602.3163 19404.2883 305.0717 0.0000 0.0000 -171178.2802 0.0000 -171178.2802 -171178.2802 0.0000 14934.4732 -5569.1430 534946.2959 14934.4732 -5569.1430
ENERGY: 500 205.6835 676.5838 2914.2274 0.0000 -196224.4981 20253.0428 282.0045 0.0000 0.0000 -171892.9561 0.0000 -171892.9561 -171892.9561 0.0000 15539.7059 -5149.4513 534946.2959 15539.7059 -5149.4513
TCL: Setting parameter constraintScaling to 0.3125
TCL: Minimizing for 100 steps
ETITLE: TS BOND ANGLE DIHED IMPRP ELECT VDW BOUNDARY MISC KINETIC TOTAL TEMP POTENTIAL TOTAL3 TEMPAVG PRESSURE GPRESSURE VOLUME PRESSAVG GPRESSAVG
ENERGY: 500 205.6835 676.5838 2914.2274 0.0000 -196224.4981 20253.0428 141.0023 0.0000 0.0000 -172033.9583 0.0000 -172033.9583 -172033.9583 0.0000 15730.2150 -26670.9544 534946.2959 15730.2150 -26670.9544
ENERGY: 520 160.7732 633.5602 2878.4618 0.0000 -196481.5929 20191.8050 164.3373 0.0000 0.0000 -172452.6553 0.0000 -172452.6553 -172452.6553 0.0000 15550.4071 -5164.8853 534946.2959 15550.4071 -5164.8853
ENERGY: 540 164.1169 663.0186 2869.1789 0.0000 -196974.6037 20309.6788 198.4593 0.0000 0.0000 -172770.1513 0.0000 -172770.1513 -172770.1513 0.0000 15464.8500 -5296.0663 534946.2959 15464.8500 -5296.0663
ENERGY: 560 169.1360 676.7677 2874.8953 0.0000 -197377.3110 20441.2403 217.9051 0.0000 0.0000 -172997.3667 0.0000 -172997.3667 -172997.3667 0.0000 15470.8867 -5334.8343 534946.2959 15470.8867 -5334.8343
ENERGY: 580 256.0199 668.2940 2875.3909 0.0000 -197816.4603 20631.4624 204.4873 0.0000 0.0000 -173180.8057 0.0000 -173180.8057 -173180.8057 0.0000 15666.2380 -5205.6424 534946.2959 15666.2380 -5205.6424
ENERGY: 600 189.7068 653.3690 2874.3508 0.0000 -198698.9049 21017.9101 213.0469 0.0000 0.0000 -173750.5212 0.0000 -173750.5212 -173750.5212 0.0000 15936.6969 -5044.2398 534946.2959 15936.6969 -5044.2398
TCL: Setting parameter constraintScaling to 0.15625
TCL: Minimizing for 100 steps
ETITLE: TS BOND ANGLE DIHED IMPRP ELECT VDW BOUNDARY MISC KINETIC TOTAL TEMP POTENTIAL TOTAL3 TEMPAVG PRESSURE GPRESSURE VOLUME PRESSAVG GPRESSAVG
ENERGY: 600 189.7068 653.3690 2874.3508 0.0000 -198698.9049 21017.9101 106.5235 0.0000 0.0000 -173857.0447 0.0000 -173857.0447 -173857.0447 0.0000 16056.1535 -26925.7037 534946.2959 16056.1535 -26925.7037
ENERGY: 620 163.1017 635.4325 2861.8117 0.0000 -198871.4050 21028.8237 114.8382 0.0000 0.0000 -174067.3973 0.0000 -174067.3973 -174067.3973 0.0000 15959.4382 -5017.7469 534946.2959 15959.4382 -5017.7469
ENERGY: 640 294.1805 706.3773 2857.5874 0.0000 -199278.4546 21148.9424 129.4022 0.0000 0.0000 -174141.9648 0.0000 -174141.9648 -174141.9648 0.0000 15911.7601 -5116.3118 534946.2959 15911.7601 -5116.3118
ENERGY: 660 164.4467 665.2369 2855.2846 0.0000 -199540.3082 21231.5400 133.0497 0.0000 0.0000 -174490.7503 0.0000 -174490.7503 -174490.7503 0.0000 15987.8792 -5071.6975 534946.2959 15987.8792 -5071.6975
ENERGY: 680 159.7654 648.9868 2857.2137 0.0000 -200043.7162 21455.1622 132.4821 0.0000 0.0000 -174790.1060 0.0000 -174790.1060 -174790.1060 0.0000 16173.2836 -4955.3265 534946.2959 16173.2836 -4955.3265
ENERGY: 700 188.5353 686.8868 2864.6023 0.0000 -200933.5362 21828.2689 144.2233 0.0000 0.0000 -175221.0197 0.0000 -175221.0197 -175221.0197 0.0000 16358.5094 -4867.4689 534946.2959 16358.5094 -4867.4689
TCL: Setting parameter constraintScaling to 0.078125
TCL: Minimizing for 100 steps
ETITLE: TS BOND ANGLE DIHED IMPRP ELECT VDW BOUNDARY MISC KINETIC TOTAL TEMP POTENTIAL TOTAL3 TEMPAVG PRESSURE GPRESSURE VOLUME PRESSAVG GPRESSAVG
ENERGY: 700 188.5353 686.8868 2864.6023 0.0000 -200933.5362 21828.2689 72.1117 0.0000 0.0000 -175293.1313 0.0000 -175293.1313 -175293.1313 0.0000 16429.8642 -27089.7425 534946.2959 16429.8642 -27089.7425
ENERGY: 720 160.3624 644.9585 2839.9002 0.0000 -201142.2670 21848.6057 77.9002 0.0000 0.0000 -175570.5400 0.0000 -175570.5400 -175570.5400 0.0000 16384.8514 -4867.1824 534946.2959 16384.8514 -4867.1824
ENERGY: 740 303.4337 714.3703 2841.8100 0.0000 -201670.7468 22049.4747 87.1415 0.0000 0.0000 -175674.5167 0.0000 -175674.5167 -175674.5167 0.0000 16398.4339 -4927.6495 534946.2959 16398.4339 -4927.6495
ENERGY: 760 170.4156 661.3334 2838.4186 0.0000 -201740.2959 22061.8867 86.6732 0.0000 0.0000 -175921.5684 0.0000 -175921.5684 -175921.5684 0.0000 16427.7347 -4887.6573 534946.2959 16427.7347 -4887.6573
ENERGY: 780 162.0312 687.7433 2870.7965 0.0000 -202632.6012 22516.1741 87.3721 0.0000 0.0000 -176308.4841 0.0000 -176308.4841 -176308.4841 0.0000 16796.4204 -4635.1845 534946.2959 16796.4204 -4635.1845
ENERGY: 800 164.9941 658.9463 2833.2875 0.0000 -202794.5520 22498.0990 93.2730 0.0000 0.0000 -176545.9521 0.0000 -176545.9521 -176545.9521 0.0000 16700.4776 -4747.1591 534946.2959 16700.4776 -4747.1591
TCL: Setting parameter constraintScaling to 0.0390625
TCL: Minimizing for 100 steps
ETITLE: TS BOND ANGLE DIHED IMPRP ELECT VDW BOUNDARY MISC KINETIC TOTAL TEMP POTENTIAL TOTAL3 TEMPAVG PRESSURE GPRESSURE VOLUME PRESSAVG GPRESSAVG
ENERGY: 800 164.9941 658.9463 2833.2875 0.0000 -202794.5520 22498.0990 46.6365 0.0000 0.0000 -176592.5886 0.0000 -176592.5886 -176592.5886 0.0000 16742.0605 -27222.0601 534946.2959 16742.0605 -27222.0601
ENERGY: 820 185.7353 664.5019 2829.5983 0.0000 -203032.3662 22591.4734 48.3962 0.0000 0.0000 -176712.6612 0.0000 -176712.6612 -176712.6612 0.0000 16751.4602 -4721.3366 534946.2959 16751.4602 -4721.3366
ENERGY: 840 172.2853 660.2598 2824.5918 0.0000 -203392.9474 22740.9037 51.8300 0.0000 0.0000 -176943.0768 0.0000 -176943.0768 -176943.0768 0.0000 16805.9660 -4704.8323 534946.2959 16805.9660 -4704.8323
ENERGY: 860 206.2119 662.1315 2822.5702 0.0000 -203693.4946 22862.2356 52.7523 0.0000 0.0000 -177087.5932 0.0000 -177087.5932 -177087.5932 0.0000 16866.6679 -4679.5257 534946.2959 16866.6679 -4679.5257
ENERGY: 880 239.2993 662.7187 2829.1229 0.0000 -204223.2079 23113.6571 53.8035 0.0000 0.0000 -177324.6064 0.0000 -177324.6064 -177324.6064 0.0000 17072.2346 -4547.0737 534946.2959 17072.2346 -4547.0737
ENERGY: 900 153.1804 647.6475 2823.7043 0.0000 -204450.7230 23208.4017 55.0120 0.0000 0.0000 -177562.7770 0.0000 -177562.7770 -177562.7770 0.0000 17117.0353 -4528.3580 534946.2959 17117.0353 -4528.3580
TCL: Setting parameter constraintScaling to 0.01953125
TCL: Minimizing for 100 steps
ETITLE: TS BOND ANGLE DIHED IMPRP ELECT VDW BOUNDARY MISC KINETIC TOTAL TEMP POTENTIAL TOTAL3 TEMPAVG PRESSURE GPRESSURE VOLUME PRESSAVG GPRESSAVG
ENERGY: 900 153.1804 647.6475 2823.7043 0.0000 -204450.7230 23208.4017 27.5060 0.0000 0.0000 -177590.2831 0.0000 -177590.2831 -177590.2831 0.0000 17140.2934 -27222.1014 534946.2959 17140.2934 -27222.1014
ENERGY: 920 160.1795 647.1633 2815.0804 0.0000 -204653.7433 23276.0246 28.7667 0.0000 0.0000 -177726.5288 0.0000 -177726.5288 -177726.5288 0.0000 17127.0167 -4537.8493 534946.2959 17127.0167 -4537.8493
ENERGY: 940 172.1666 665.2057 2815.3633 0.0000 -204988.4766 23424.4824 30.5311 0.0000 0.0000 -177880.7277 0.0000 -177880.7277 -177880.7277 0.0000 17177.9835 -4522.2849 534946.2959 17177.9835 -4522.2849
ENERGY: 960 165.0060 657.1356 2811.6558 0.0000 -205452.3791 23624.9625 31.8870 0.0000 0.0000 -178161.7321 0.0000 -178161.7321 -178161.7321 0.0000 17290.6832 -4464.7958 534946.2959 17290.6832 -4464.7958
ENERGY: 980 166.9695 651.2101 2810.1824 0.0000 -205697.5572 23740.3503 32.1257 0.0000 0.0000 -178296.7192 0.0000 -178296.7192 -178296.7192 0.0000 17376.0431 -4413.1175 534946.2959 17376.0431 -4413.1175
ENERGY: 1000 162.2142 656.9799 2810.6904 0.0000 -206108.6615 23930.4581 33.2058 0.0000 0.0000 -178515.1130 0.0000 -178515.1130 -178515.1130 0.0000 17503.6861 -4343.7661 534946.2959 17503.6861 -4343.7661
TCL: Setting parameter constraintScaling to 0
TCL: Minimizing for 5000 steps
ETITLE: TS BOND ANGLE DIHED IMPRP ELECT VDW BOUNDARY MISC KINETIC TOTAL TEMP POTENTIAL TOTAL3 TEMPAVG PRESSURE GPRESSURE VOLUME PRESSAVG GPRESSAVG
ENERGY: 1000 162.2142 656.9799 2810.6904 0.0000 -206108.6615 23930.4581 0.0000 0.0000 0.0000 -178548.3188 0.0000 -178548.3188 -178548.3188 0.0000 17529.9541 -27224.3185 534946.2959 17529.9541 -27224.3185
ENERGY: 2000 177.1839 664.3635 2802.7138 0.0000 -214896.0928 27838.4810 0.0000 0.0000 0.0000 -183413.3506 0.0000 -183413.3506 -183413.3506 0.0000 19548.4740 -3267.4629 534946.2959 19548.4740 -3267.4629
ENERGY: 3000 166.5460 663.1237 2796.6654 0.0000 -217390.2897 28804.7671 0.0000 0.0000 0.0000 -184959.1876 0.0000 -184959.1876 -184959.1876 0.0000 20072.3117 -3008.2255 534946.2959 20072.3117 -3008.2255
ENERGY: 4000 165.4132 661.0340 2792.3062 0.0000 -218745.8790 29372.6320 0.0000 0.0000 0.0000 -185754.4936 0.0000 -185754.4936 -185754.4936 0.0000 20382.5682 -2832.6877 534946.2959 20382.5682 -2832.6877
ENERGY: 5000 165.7138 664.7770 2792.7288 0.0000 -219401.9570 29607.6551 0.0000 0.0000 0.0000 -186171.0823 0.0000 -186171.0823 -186171.0823 0.0000 20497.4909 -2770.6671 534946.2959 20497.4909 -2770.6671
ENERGY: 6000 166.6324 665.9081 2792.8560 0.0000 -219860.7470 29815.8149 0.0000 0.0000 0.0000 -186419.5355 0.0000 -186419.5355 -186419.5355 0.0000 20603.9554 -2718.2897 534946.2959 20603.9554 -2718.2897
