Info: SIMULATION PARAMETERS:
Info: TIMESTEP               2
Info: NUMBER OF STEPS        0
Info: STEPS PER CYCLE        10
Info: PERIODIC CELL BASIS 1  72.449 0 0
Info: PERIODIC CELL BASIS 2  0 93.247 0
Info: PERIODIC CELL BASIS 3  0 0 79.185
Info: PERIODIC CELL CENTER   -0.248 -0.156 -0.047
Info: WRAPPING WATERS AROUND PERIODIC BOUNDARIES ON OUTPUT.
Info: WRAPPING ALL CLUSTERS AROUND PERIODIC BOUNDARIES ON OUTPUT.
Info: FIRST LDB TIMESTEP     50
Info: LAST LDB TIMESTEP     -1
Info: HOM BACKGROUND SCALING 1
Info: PME BACKGROUND SCALING 1
Info: MIN ATOMS PER PATCH    40
Info: INITIAL TEMPERATURE    0
Info: CENTER OF MASS MOVING INITIALLY? NO
Info: DIELECTRIC             1
Info: EXCLUDE                SCALED ONE-FOUR
Info: 1-4 ELECTROSTATICS SCALED BY 0.833333
Info: MODIFIED 1-4 VDW PARAMETERS WILL BE USED
Info: NO DCD TRAJECTORY OUTPUT
Info: NO EXTENDED SYSTEM TRAJECTORY OUTPUT
Info: NO VELOCITY DCD OUTPUT
Info: NO FORCE DCD OUTPUT
Info: OUTPUT FILENAME        ../replicas/rep12/equilibration/eq0
Info: NO RESTART FILE
Info: SWITCHING ACTIVE
Info: SWITCHING ON           10
Info: SWITCHING OFF          12
Info: PAIRLIST DISTANCE      13.5
Info: PAIRLIST SHRINK RATE   0.01
Info: PAIRLIST GROW RATE     0.01
Info: PAIRLIST TRIGGER       0.3
Info: PAIRLISTS PER CYCLE    2
Info: PAIRLISTS ENABLED
Info: MARGIN                 0
Info: HYDROGEN GROUP CUTOFF  2.5
Info: PATCH DIMENSION        16
Info: ENERGY OUTPUT STEPS    500
Info: CROSSTERM ENERGY INCLUDED IN DIHEDRAL
Info: TIMING OUTPUT STEPS    5000
Info: PRESSURE OUTPUT STEPS  500
Info: HARMONIC CONSTRAINTS ACTIVE
Info: HARMONIC CONS EXP      2
Info: HARMONIC CONS SCALING  10
Info: CONJUGATE GRADIENT MINIMIZATION ACTIVE
Info: LINE MINIMIZATION GOAL = 0.001
Info: BABY STEP SIZE = 0.01
Info: TINY STEP SIZE = 1e-06
Info: PARTICLE MESH EWALD (PME) ACTIVE
Info: PME TOLERANCE               1e-06
Info: PME EWALD COEFFICIENT       0.257952
Info: PME INTERPOLATION ORDER     4
Info: PME GRID DIMENSIONS         80 96 80
Info: PME MAXIMUM GRID SPACING    1
Info: FULL ELECTROSTATIC EVALUATION FREQUENCY      2
Info: USING VERLET I (r-RESPA) MTS SCHEME.
Info: C1 SPLITTING OF LONG RANGE ELECTROSTATICS
Info: PLACING ATOMS IN PATCHES BY HYDROGEN GROUPS
Info: RIGID BONDS TO HYDROGEN : ALL
Info:         ERROR TOLERANCE : 1e-05
Info:          MAX ITERATIONS : 100
Info: RIGID WATER USING SETTLE ALGORITHM
Info: RANDOM NUMBER SEED     1503691242
Info: USE HYDROGEN BONDS?    NO
Info: Using AMBER format force field!
Info: AMBER PARM FILE        ../build/complex.top
Info: COORDINATE PDB         ../build/complex.pdb
Info: Exclusions in PARM file will be ignored!
Info: SCNB (VDW SCALING)     2
Info: USING ARITHMETIC MEAN TO COMBINE L-J SIGMA PARAMETERS
Info: SUMMARY OF PARAMETERS:
Info: 71 BONDS
Info: 145 ANGLES
Info: 76 DIHEDRAL
Info: 0 IMPROPER
Info: 0 CROSSTERM
Info: 0 VDW
Info: 190 VDW_PAIRS
Info: 0 NBTHOLE_PAIRS
Info: STRUCTURE SUMMARY:
Info: 49394 ATOMS
Info: 49448 BONDS
Info: 8698 ANGLES
Info: 18780 DIHEDRALS
Info: 0 IMPROPERS
Info: 0 CROSSTERMS
Info: 0 EXCLUSIONS
Info: 2336 CONSTRAINTS
Info: 47058 RIGID BONDS
Info: 101124 DEGREES OF FREEDOM
Info: 17225 HYDROGEN GROUPS
Info: 4 ATOMS IN LARGEST HYDROGEN GROUP
Info: 17225 MIGRATION GROUPS
Info: 4 ATOMS IN LARGEST MIGRATION GROUP
Info: TOTAL MASS = 301478 amu
Info: TOTAL CHARGE = 1.00115e-05 e
Info: MASS DENSITY = 0.935846 g/cm^3
Info: ATOM DENSITY = 0.0923345 atoms/A^3
Info: ADDED 70656 IMPLICIT EXCLUSIONS
Info: NONBONDED TABLE R-SQUARED SPACING: 0.0625
Info: NONBONDED TABLE SIZE: 769 POINTS
Info: REMOVING COM VELOCITY 0 0 0
TCL: Minimizing for 100 steps
ETITLE: TS BOND ANGLE DIHED IMPRP ELECT VDW BOUNDARY MISC KINETIC TOTAL TEMP POTENTIAL TOTAL3 TEMPAVG PRESSURE GPRESSURE VOLUME PRESSAVG GPRESSAVG
ENERGY: 0 155.4176 1012.2698 2855.7272 0.0000 -154496.7911 207729.2052 0.0468 0.0000 0.0000 57255.8755 0.0000 57255.8755 57255.8755 0.0000 116350.2532 86546.1670 534946.2959 116350.2532 86546.1670
ENERGY: 20 304.7561 935.7913 2893.4663 0.0000 -158672.9413 17936.6590 143.9455 0.0000 0.0000 -136458.3232 0.0000 -136458.3232 -136458.3232 0.0000 16523.9383 -239.4563 534946.2959 16523.9383 -239.4563
ENERGY: 40 198.7450 799.5729 2896.9273 0.0000 -162811.4518 16417.9540 221.3030 0.0000 0.0000 -142276.9497 0.0000 -142276.9497 -142276.9497 0.0000 15011.2706 -2135.4694 534946.2959 15011.2706 -2135.4694
ENERGY: 60 130.5282 715.3440 2898.2166 0.0000 -167496.1559 15446.7541 315.2796 0.0000 0.0000 -147990.0334 0.0000 -147990.0334 -147990.0334 0.0000 13793.8839 -3799.3983 534946.2959 13793.8839 -3799.3983
ENERGY: 80 431.2722 765.6305 2904.3787 0.0000 -169937.5341 15121.1518 372.0124 0.0000 0.0000 -150343.0886 0.0000 -150343.0886 -150343.0886 0.0000 13270.3297 -4577.2460 534946.2959 13270.3297 -4577.2460
ENERGY: 100 119.3847 710.0599 2905.2591 0.0000 -171259.7104 14991.7872 387.3613 0.0000 0.0000 -152145.8583 0.0000 -152145.8583 -152145.8583 0.0000 13056.2658 -4908.1715 534946.2959 13056.2658 -4908.1715
TCL: Setting parameter constraintScaling to 5.0
TCL: Minimizing for 100 steps
ETITLE: TS BOND ANGLE DIHED IMPRP ELECT VDW BOUNDARY MISC KINETIC TOTAL TEMP POTENTIAL TOTAL3 TEMPAVG PRESSURE GPRESSURE VOLUME PRESSAVG GPRESSAVG
ENERGY: 100 119.3847 710.0599 2905.2591 0.0000 -171259.7104 14991.7872 193.6806 0.0000 0.0000 -152339.5389 0.0000 -152339.5389 -152339.5389 0.0000 13672.7719 -23021.8176 534946.2959 13672.7719 -23021.8176
ENERGY: 120 108.8798 687.5828 2912.9265 0.0000 -172865.8826 14798.2708 281.1915 0.0000 0.0000 -154077.0312 0.0000 -154077.0312 -154077.0312 0.0000 13218.2555 -4906.0161 534946.2959 13218.2555 -4906.0161
ENERGY: 140 309.3763 708.8572 2913.8024 0.0000 -174236.7822 14731.4754 326.6427 0.0000 0.0000 -155246.6283 0.0000 -155246.6283 -155246.6283 0.0000 12971.5168 -5303.2672 534946.2959 12971.5168 -5303.2672
ENERGY: 160 265.4934 683.1908 2923.1891 0.0000 -176276.7765 14757.4211 382.9434 0.0000 0.0000 -157264.5387 0.0000 -157264.5387 -157264.5387 0.0000 12740.7755 -5743.1900 534946.2959 12740.7755 -5743.1900
ENERGY: 180 268.7274 744.0996 2928.5663 0.0000 -178996.4823 15023.6940 473.3584 0.0000 0.0000 -159558.0368 0.0000 -159558.0368 -159558.0368 0.0000 12521.5464 -6223.8219 534946.2959 12521.5464 -6223.8219
ENERGY: 200 239.0796 694.0719 2941.3742 0.0000 -181557.1143 15587.2503 546.2822 0.0000 0.0000 -161549.0562 0.0000 -161549.0562 -161549.0562 0.0000 12582.6613 -6431.0733 534946.2959 12582.6613 -6431.0733
TCL: Setting parameter constraintScaling to 2.5
TCL: Minimizing for 100 steps
ETITLE: TS BOND ANGLE DIHED IMPRP ELECT VDW BOUNDARY MISC KINETIC TOTAL TEMP POTENTIAL TOTAL3 TEMPAVG PRESSURE GPRESSURE VOLUME PRESSAVG GPRESSAVG
ENERGY: 200 239.0796 694.0719 2941.3742 0.0000 -181557.1143 15587.2503 273.1411 0.0000 0.0000 -161822.1973 0.0000 -161822.1973 -161822.1973 0.0000 13229.5888 -25661.9497 534946.2959 13229.5888 -25661.9497
ENERGY: 220 245.6657 677.0144 2932.9959 0.0000 -182074.9367 15472.4793 337.3057 0.0000 0.0000 -162409.4756 0.0000 -162409.4756 -162409.4756 0.0000 12973.0004 -6095.1340 534946.2959 12973.0004 -6095.1340
ENERGY: 240 154.2775 693.7601 2928.7138 0.0000 -182681.8442 15529.7271 347.0865 0.0000 0.0000 -163028.2792 0.0000 -163028.2792 -163028.2792 0.0000 13033.3415 -6138.4338 534946.2959 13033.3415 -6138.4338
ENERGY: 260 178.6244 683.3032 2920.2025 0.0000 -184291.6074 15886.2287 399.0630 0.0000 0.0000 -164224.1856 0.0000 -164224.1856 -164224.1856 0.0000 13053.7801 -6281.7000 534946.2959 13053.7801 -6281.7000
ENERGY: 280 169.2185 700.8289 2917.5860 0.0000 -185421.1844 16227.9031 454.9550 0.0000 0.0000 -164950.6930 0.0000 -164950.6930 -164950.6930 0.0000 13142.7430 -6345.8381 534946.2959 13142.7430 -6345.8381
ENERGY: 300 126.7124 639.5203 2916.2445 0.0000 -186092.4418 16444.7163 481.3780 0.0000 0.0000 -165483.8704 0.0000 -165483.8704 -165483.8704 0.0000 13207.1828 -6349.7821 534946.2959 13207.1828 -6349.7821
TCL: Setting parameter constraintScaling to 1.25
TCL: Minimizing for 100 steps
ETITLE: TS BOND ANGLE DIHED IMPRP ELECT VDW BOUNDARY MISC KINETIC TOTAL TEMP POTENTIAL TOTAL3 TEMPAVG PRESSURE GPRESSURE VOLUME PRESSAVG GPRESSAVG
ENERGY: 300 126.7124 639.5203 2916.2445 0.0000 -186092.4418 16444.7163 240.6890 0.0000 0.0000 -165724.5594 0.0000 -165724.5594 -165724.5594 0.0000 13655.5194 -26359.5227 534946.2959 13655.5194 -26359.5227
ENERGY: 320 265.6909 657.4815 2911.4736 0.0000 -186852.6659 16633.4102 286.6999 0.0000 0.0000 -166097.9098 0.0000 -166097.9098 -166097.9098 0.0000 13611.2192 -6016.0108 534946.2959 13611.2192 -6016.0108
ENERGY: 340 143.6507 621.0616 2910.1303 0.0000 -187426.6587 16829.0377 296.8120 0.0000 0.0000 -166625.9663 0.0000 -166625.9663 -166625.9663 0.0000 13661.3579 -6012.7069 534946.2959 13661.3579 -6012.7069
ENERGY: 360 127.2823 661.6735 2906.8430 0.0000 -188944.3682 17355.7897 350.3748 0.0000 0.0000 -167542.4050 0.0000 -167542.4050 -167542.4050 0.0000 13907.9001 -5982.9516 534946.2959 13907.9001 -5982.9516
ENERGY: 380 142.7671 635.1209 2900.3149 0.0000 -190449.4409 17949.1077 401.8391 0.0000 0.0000 -168420.2913 0.0000 -168420.2913 -168420.2913 0.0000 14047.6373 -5972.9262 534946.2959 14047.6373 -5972.9262
ENERGY: 400 139.2075 653.7148 2901.7605 0.0000 -190653.6108 17992.9573 400.5735 0.0000 0.0000 -168565.3973 0.0000 -168565.3973 -168565.3973 0.0000 14153.7301 -5930.2210 534946.2959 14153.7301 -5930.2210
TCL: Setting parameter constraintScaling to 0.625
TCL: Minimizing for 100 steps
ETITLE: TS BOND ANGLE DIHED IMPRP ELECT VDW BOUNDARY MISC KINETIC TOTAL TEMP POTENTIAL TOTAL3 TEMPAVG PRESSURE GPRESSURE VOLUME PRESSAVG GPRESSAVG
ENERGY: 400 139.2075 653.7148 2901.7605 0.0000 -190653.6108 17992.9573 200.2867 0.0000 0.0000 -168765.6840 0.0000 -168765.6840 -168765.6840 0.0000 14454.5550 -26626.2344 534946.2959 14454.5550 -26626.2344
ENERGY: 420 174.1777 642.1630 2898.4386 0.0000 -190953.0699 18067.9690 215.6657 0.0000 0.0000 -168954.6558 0.0000 -168954.6558 -168954.6558 0.0000 14350.4667 -5726.5948 534946.2959 14350.4667 -5726.5948
ENERGY: 440 173.4901 646.0235 2892.1996 0.0000 -191554.9940 18238.4269 242.3392 0.0000 0.0000 -169362.5147 0.0000 -169362.5147 -169362.5147 0.0000 14404.2594 -5752.8234 534946.2959 14404.2594 -5752.8234
ENERGY: 460 307.7803 663.2981 2885.6103 0.0000 -192296.6893 18494.9148 264.6306 0.0000 0.0000 -169680.4553 0.0000 -169680.4553 -169680.4553 0.0000 14517.4667 -5741.0568 534946.2959 14517.4667 -5741.0568
ENERGY: 480 226.1902 657.1033 2889.4542 0.0000 -193419.9558 18932.8717 293.3007 0.0000 0.0000 -170421.0357 0.0000 -170421.0357 -170421.0357 0.0000 14660.8488 -5698.8223 534946.2959 14660.8488 -5698.8223
ENERGY: 500 150.6383 649.7635 2881.9458 0.0000 -193602.0512 19006.9013 293.4220 0.0000 0.0000 -170619.3803 0.0000 -170619.3803 -170619.3803 0.0000 14751.6457 -5643.4514 534946.2959 14751.6457 -5643.4514
TCL: Setting parameter constraintScaling to 0.3125
TCL: Minimizing for 100 steps
ETITLE: TS BOND ANGLE DIHED IMPRP ELECT VDW BOUNDARY MISC KINETIC TOTAL TEMP POTENTIAL TOTAL3 TEMPAVG PRESSURE GPRESSURE VOLUME PRESSAVG GPRESSAVG
ENERGY: 500 150.6383 649.7635 2881.9458 0.0000 -193602.0512 19006.9013 146.7110 0.0000 0.0000 -170766.0913 0.0000 -170766.0913 -170766.0913 0.0000 14941.9655 -26832.6995 534946.2959 14941.9655 -26832.6995
ENERGY: 520 150.6042 642.5238 2878.8810 0.0000 -193976.3263 19128.5424 159.6341 0.0000 0.0000 -171016.1408 0.0000 -171016.1408 -171016.1408 0.0000 14965.4541 -5472.7256 534946.2959 14965.4541 -5472.7256
ENERGY: 540 169.9753 639.3490 2877.5741 0.0000 -194407.2752 19284.8610 171.0188 0.0000 0.0000 -171264.4970 0.0000 -171264.4970 -171264.4970 0.0000 14949.3251 -5505.1624 534946.2959 14949.3251 -5505.1624
ENERGY: 560 193.0718 668.1227 2871.4448 0.0000 -195396.7498 19659.9458 192.7306 0.0000 0.0000 -171811.4342 0.0000 -171811.4342 -171811.4342 0.0000 15203.6981 -5408.0926 534946.2959 15203.6981 -5408.0926
ENERGY: 580 152.4144 643.1661 2868.0466 0.0000 -196233.1733 20002.4171 213.4421 0.0000 0.0000 -172353.6871 0.0000 -172353.6871 -172353.6871 0.0000 15303.0362 -5377.6739 534946.2959 15303.0362 -5377.6739
ENERGY: 600 181.8498 672.3771 2867.8857 0.0000 -196505.9533 20101.9535 216.2738 0.0000 0.0000 -172465.6135 0.0000 -172465.6135 -172465.6135 0.0000 15358.8829 -5357.7697 534946.2959 15358.8829 -5357.7697
TCL: Setting parameter constraintScaling to 0.15625
TCL: Minimizing for 100 steps
ETITLE: TS BOND ANGLE DIHED IMPRP ELECT VDW BOUNDARY MISC KINETIC TOTAL TEMP POTENTIAL TOTAL3 TEMPAVG PRESSURE GPRESSURE VOLUME PRESSAVG GPRESSAVG
ENERGY: 600 181.8498 672.3771 2867.8857 0.0000 -196505.9533 20101.9535 108.1369 0.0000 0.0000 -172573.7504 0.0000 -172573.7504 -172573.7504 0.0000 15479.2804 -26976.5207 534946.2959 15479.2804 -26976.5207
ENERGY: 620 167.6704 682.0868 2870.2108 0.0000 -197136.3977 20317.2052 119.5581 0.0000 0.0000 -172979.6664 0.0000 -172979.6664 -172979.6664 0.0000 15539.0085 -5252.0077 534946.2959 15539.0085 -5252.0077
ENERGY: 640 278.7168 712.9758 2860.2025 0.0000 -197686.3278 20530.5860 124.4020 0.0000 0.0000 -173179.4448 0.0000 -173179.4448 -173179.4448 0.0000 15680.4564 -5191.7387 534946.2959 15680.4564 -5191.7387
ENERGY: 660 155.0847 653.0369 2855.5506 0.0000 -197933.1064 20617.0886 128.2435 0.0000 0.0000 -173524.1022 0.0000 -173524.1022 -173524.1022 0.0000 15699.2948 -5181.7369 534946.2959 15699.2948 -5181.7369
ENERGY: 680 176.7310 684.5810 2863.7159 0.0000 -198252.0880 20730.3331 134.1725 0.0000 0.0000 -173662.5545 0.0000 -173662.5545 -173662.5545 0.0000 15743.6178 -5182.5308 534946.2959 15743.6178 -5182.5308
ENERGY: 700 182.3795 663.0167 2852.2628 0.0000 -198789.2077 20938.3022 139.7227 0.0000 0.0000 -174013.5239 0.0000 -174013.5239 -174013.5239 0.0000 15815.4516 -5153.2862 534946.2959 15815.4516 -5153.2862
TCL: Setting parameter constraintScaling to 0.078125
TCL: Minimizing for 100 steps
ETITLE: TS BOND ANGLE DIHED IMPRP ELECT VDW BOUNDARY MISC KINETIC TOTAL TEMP POTENTIAL TOTAL3 TEMPAVG PRESSURE GPRESSURE VOLUME PRESSAVG GPRESSAVG
ENERGY: 700 182.3795 663.0167 2852.2628 0.0000 -198789.2077 20938.3022 69.8614 0.0000 0.0000 -174083.3852 0.0000 -174083.3852 -174083.3852 0.0000 15886.0400 -27116.6523 534946.2959 15886.0400 -27116.6523
ENERGY: 720 160.0848 660.3711 2849.7633 0.0000 -198947.8903 20985.3731 71.5547 0.0000 0.0000 -174220.7433 0.0000 -174220.7433 -174220.7433 0.0000 15938.8613 -5065.1764 534946.2959 15938.8613 -5065.1764
ENERGY: 740 168.7444 677.7089 2846.5373 0.0000 -199461.0410 21182.8634 76.3241 0.0000 0.0000 -174508.8629 0.0000 -174508.8629 -174508.8629 0.0000 16015.2532 -5043.8412 534946.2959 16015.2532 -5043.8412
ENERGY: 760 161.0862 656.9463 2844.8682 0.0000 -199582.0223 21211.5113 77.3824 0.0000 0.0000 -174630.2278 0.0000 -174630.2278 -174630.2278 0.0000 16030.6608 -5041.9832 534946.2959 16030.6608 -5041.9832
ENERGY: 780 172.9841 665.6720 2843.9569 0.0000 -199947.4882 21355.9666 80.2677 0.0000 0.0000 -174828.6409 0.0000 -174828.6409 -174828.6409 0.0000 16086.7758 -5024.6656 534946.2959 16086.7758 -5024.6656
ENERGY: 800 185.6673 678.3786 2837.2804 0.0000 -200852.9905 21699.7379 88.6394 0.0000 0.0000 -175363.2869 0.0000 -175363.2869 -175363.2869 0.0000 16242.1022 -4973.3153 534946.2959 16242.1022 -4973.3153
TCL: Setting parameter constraintScaling to 0.0390625
TCL: Minimizing for 100 steps
ETITLE: TS BOND ANGLE DIHED IMPRP ELECT VDW BOUNDARY MISC KINETIC TOTAL TEMP POTENTIAL TOTAL3 TEMPAVG PRESSURE GPRESSURE VOLUME PRESSAVG GPRESSAVG
ENERGY: 800 185.6673 678.3786 2837.2804 0.0000 -200852.9905 21699.7379 44.3197 0.0000 0.0000 -175407.6066 0.0000 -175407.6066 -175407.6066 0.0000 16282.9573 -27210.1519 534946.2959 16282.9573 -27210.1519
ENERGY: 820 229.9948 678.7965 2834.5605 0.0000 -200977.8780 21742.7137 44.8701 0.0000 0.0000 -175446.9424 0.0000 -175446.9424 -175446.9424 0.0000 16315.9352 -4919.7312 534946.2959 16315.9352 -4919.7312
ENERGY: 840 209.9040 659.2105 2830.0632 0.0000 -201490.6020 21941.7517 47.5314 0.0000 0.0000 -175802.1412 0.0000 -175802.1412 -175802.1412 0.0000 16411.9984 -4887.3847 534946.2959 16411.9984 -4887.3847
ENERGY: 860 162.8634 650.0787 2830.5966 0.0000 -201655.6173 22003.6557 48.2887 0.0000 0.0000 -175960.1342 0.0000 -175960.1342 -175960.1342 0.0000 16446.2478 -4871.1008 534946.2959 16446.2478 -4871.1008
ENERGY: 880 173.1346 657.1679 2827.2666 0.0000 -202023.7726 22148.3172 50.0378 0.0000 0.0000 -176167.8485 0.0000 -176167.8485 -176167.8485 0.0000 16512.2914 -4848.6965 534946.2959 16512.2914 -4848.6965
ENERGY: 900 185.6421 674.6617 2827.2269 0.0000 -202643.8154 22401.4980 52.8257 0.0000 0.0000 -176501.9609 0.0000 -176501.9609 -176501.9609 0.0000 16641.2110 -4790.3251 534946.2959 16641.2110 -4790.3251
TCL: Setting parameter constraintScaling to 0.01953125
TCL: Minimizing for 100 steps
ETITLE: TS BOND ANGLE DIHED IMPRP ELECT VDW BOUNDARY MISC KINETIC TOTAL TEMP POTENTIAL TOTAL3 TEMPAVG PRESSURE GPRESSURE VOLUME PRESSAVG GPRESSAVG
ENERGY: 900 185.6421 674.6617 2827.2269 0.0000 -202643.8154 22401.4980 26.4129 0.0000 0.0000 -176528.3738 0.0000 -176528.3738 -176528.3738 0.0000 16663.9887 -27259.1395 534946.2959 16663.9887 -27259.1395
ENERGY: 920 168.7104 654.4258 2823.2017 0.0000 -202770.8585 22448.3817 26.8593 0.0000 0.0000 -176649.2797 0.0000 -176649.2797 -176649.2797 0.0000 16690.2688 -4755.7924 534946.2959 16690.2688 -4755.7924
ENERGY: 940 172.0844 659.9156 2820.6533 0.0000 -203244.0382 22650.8417 28.2885 0.0000 0.0000 -176912.2548 0.0000 -176912.2548 -176912.2548 0.0000 16782.9188 -4717.7056 534946.2959 16782.9188 -4717.7056
ENERGY: 960 163.9152 657.6661 2817.7703 0.0000 -203572.8730 22787.2254 29.2012 0.0000 0.0000 -177117.0948 0.0000 -177117.0948 -177117.0948 0.0000 16863.8531 -4678.1081 534946.2959 16863.8531 -4678.1081
ENERGY: 980 317.0180 761.1992 2829.6595 0.0000 -203978.0262 22969.5103 30.1971 0.0000 0.0000 -177070.4422 0.0000 -177070.4422 -177070.4422 0.0000 16950.2071 -4646.7800 534946.2959 16950.2071 -4646.7800
ENERGY: 1000 205.8494 683.5012 2814.6441 0.0000 -204478.9865 23190.8838 31.3534 0.0000 0.0000 -177552.7548 0.0000 -177552.7548 -177552.7548 0.0000 17085.3694 -4574.8327 534946.2959 17085.3694 -4574.8327
TCL: Setting parameter constraintScaling to 0
TCL: Minimizing for 5000 steps
ETITLE: TS BOND ANGLE DIHED IMPRP ELECT VDW BOUNDARY MISC KINETIC TOTAL TEMP POTENTIAL TOTAL3 TEMPAVG PRESSURE GPRESSURE VOLUME PRESSAVG GPRESSAVG
ENERGY: 1000 205.8494 683.5012 2814.6441 0.0000 -204478.9865 23190.8838 0.0000 0.0000 0.0000 -177584.1081 0.0000 -177584.1081 -177584.1081 0.0000 17110.9420 -27257.1895 534946.2959 17110.9420 -27257.1895
ENERGY: 2000 174.2896 667.2322 2798.3555 0.0000 -214421.2256 27606.2613 0.0000 0.0000 0.0000 -183175.0870 0.0000 -183175.0870 -183175.0870 0.0000 19429.1828 -3342.3682 534946.2959 19429.1828 -3342.3682
ENERGY: 3000 169.3800 672.0927 2794.3550 0.0000 -217204.0391 28786.5224 0.0000 0.0000 0.0000 -184781.6891 0.0000 -184781.6891 -184781.6891 0.0000 20060.3920 -2722.1097 534946.2959 20060.3920 -2722.1097
ENERGY: 4000 167.0200 669.2630 2786.6843 0.0000 -218632.3497 29330.3313 0.0000 0.0000 0.0000 -185679.0511 0.0000 -185679.0511 -185679.0511 0.0000 20334.7943 -2600.4657 534946.2959 20334.7943 -2600.4657
ENERGY: 5000 166.6310 668.9780 2783.1512 0.0000 -219476.3146 29706.9420 0.0000 0.0000 0.0000 -186150.6125 0.0000 -186150.6125 -186150.6125 0.0000 20527.8130 -2497.3562 534946.2959 20527.8130 -2497.3562
ENERGY: 6000 167.4522 669.8857 2780.9443 0.0000 -219813.1578 29801.2562 0.0000 0.0000 0.0000 -186393.6194 0.0000 -186393.6194 -186393.6194 0.0000 20577.2612 -2481.4982 534946.2959 20577.2612 -2481.4982
