Info: SIMULATION PARAMETERS:
Info: TIMESTEP               2
Info: NUMBER OF STEPS        0
Info: STEPS PER CYCLE        10
Info: PERIODIC CELL BASIS 1  72.449 0 0
Info: PERIODIC CELL BASIS 2  0 93.247 0
Info: PERIODIC CELL BASIS 3  0 0 79.185
Info: PERIODIC CELL CENTER   -0.248 -0.156 -0.047
Info: WRAPPING WATERS AROUND PERIODIC BOUNDARIES ON OUTPUT.
Info: WRAPPING ALL CLUSTERS AROUND PERIODIC BOUNDARIES ON OUTPUT.
Info: FIRST LDB TIMESTEP     50
Info: LAST LDB TIMESTEP     -1
Info: HOM BACKGROUND SCALING 1
Info: PME BACKGROUND SCALING 1
Info: MIN ATOMS PER PATCH    40
Info: INITIAL TEMPERATURE    0
Info: CENTER OF MASS MOVING INITIALLY? NO
Info: DIELECTRIC             1
Info: EXCLUDE                SCALED ONE-FOUR
Info: 1-4 ELECTROSTATICS SCALED BY 0.833333
Info: MODIFIED 1-4 VDW PARAMETERS WILL BE USED
Info: NO DCD TRAJECTORY OUTPUT
Info: NO EXTENDED SYSTEM TRAJECTORY OUTPUT
Info: NO VELOCITY DCD OUTPUT
Info: NO FORCE DCD OUTPUT
Info: OUTPUT FILENAME        ../replicas/rep6/equilibration/eq0
Info: NO RESTART FILE
Info: SWITCHING ACTIVE
Info: SWITCHING ON           10
Info: SWITCHING OFF          12
Info: PAIRLIST DISTANCE      13.5
Info: PAIRLIST SHRINK RATE   0.01
Info: PAIRLIST GROW RATE     0.01
Info: PAIRLIST TRIGGER       0.3
Info: PAIRLISTS PER CYCLE    2
Info: PAIRLISTS ENABLED
Info: MARGIN                 0
Info: HYDROGEN GROUP CUTOFF  2.5
Info: PATCH DIMENSION        16
Info: ENERGY OUTPUT STEPS    500
Info: CROSSTERM ENERGY INCLUDED IN DIHEDRAL
Info: TIMING OUTPUT STEPS    5000
Info: PRESSURE OUTPUT STEPS  500
Info: HARMONIC CONSTRAINTS ACTIVE
Info: HARMONIC CONS EXP      2
Info: HARMONIC CONS SCALING  10
Info: CONJUGATE GRADIENT MINIMIZATION ACTIVE
Info: LINE MINIMIZATION GOAL = 0.001
Info: BABY STEP SIZE = 0.01
Info: TINY STEP SIZE = 1e-06
Info: PARTICLE MESH EWALD (PME) ACTIVE
Info: PME TOLERANCE               1e-06
Info: PME EWALD COEFFICIENT       0.257952
Info: PME INTERPOLATION ORDER     4
Info: PME GRID DIMENSIONS         80 96 80
Info: PME MAXIMUM GRID SPACING    1
Info: FULL ELECTROSTATIC EVALUATION FREQUENCY      2
Info: USING VERLET I (r-RESPA) MTS SCHEME.
Info: C1 SPLITTING OF LONG RANGE ELECTROSTATICS
Info: PLACING ATOMS IN PATCHES BY HYDROGEN GROUPS
Info: RIGID BONDS TO HYDROGEN : ALL
Info:         ERROR TOLERANCE : 1e-05
Info:          MAX ITERATIONS : 100
Info: RIGID WATER USING SETTLE ALGORITHM
Info: RANDOM NUMBER SEED     1503691545
Info: USE HYDROGEN BONDS?    NO
Info: Using AMBER format force field!
Info: AMBER PARM FILE        ../build/complex.top
Info: COORDINATE PDB         ../build/complex.pdb
Info: Exclusions in PARM file will be ignored!
Info: SCNB (VDW SCALING)     2
Info: USING ARITHMETIC MEAN TO COMBINE L-J SIGMA PARAMETERS
Info: SUMMARY OF PARAMETERS:
Info: 71 BONDS
Info: 145 ANGLES
Info:   145 HARMONIC
Info:   0 COSINE-BASED
Info: 76 DIHEDRAL
Info: 0 IMPROPER
Info: 0 CROSSTERM
Info: 0 VDW
Info: 190 VDW_PAIRS
Info: 0 NBTHOLE_PAIRS
Info: STRUCTURE SUMMARY:
Info: 49394 ATOMS
Info: 49448 BONDS
Info: 8698 ANGLES
Info: 18780 DIHEDRALS
Info: 0 IMPROPERS
Info: 0 CROSSTERMS
Info: 0 EXCLUSIONS
Info: 2336 CONSTRAINTS
Info: 47058 RIGID BONDS
Info: 101124 DEGREES OF FREEDOM
Info: 17225 HYDROGEN GROUPS
Info: 4 ATOMS IN LARGEST HYDROGEN GROUP
Info: 17225 MIGRATION GROUPS
Info: 4 ATOMS IN LARGEST MIGRATION GROUP
Info: TOTAL MASS = 301478 amu
Info: TOTAL CHARGE = 1.00115e-05 e
Info: MASS DENSITY = 0.935846 g/cm^3
Info: ATOM DENSITY = 0.0923345 atoms/A^3
Info: ADDED 70656 IMPLICIT EXCLUSIONS
Info: NONBONDED TABLE R-SQUARED SPACING: 0.0625
Info: NONBONDED TABLE SIZE: 769 POINTS
Info: REMOVING COM VELOCITY 0 0 0
TCL: Minimizing for 100 steps
ETITLE: TS BOND ANGLE DIHED IMPRP ELECT VDW BOUNDARY MISC KINETIC TOTAL TEMP POTENTIAL TOTAL3 TEMPAVG PRESSURE GPRESSURE VOLUME PRESSAVG GPRESSAVG
ENERGY: 0 155.4176 1012.2698 2855.7272 0.0000 -154496.7910 207729.2052 0.0468 0.0000 0.0000 57255.8756 0.0000 57255.8756 57255.8756 0.0000 116350.2532 86546.1670 534946.2959 116350.2532 86546.1670
ENERGY: 20 304.7554 935.7912 2893.4663 0.0000 -158672.9407 17936.6593 143.9454 0.0000 0.0000 -136458.3231 0.0000 -136458.3231 -136458.3231 0.0000 16523.9385 -239.4560 534946.2959 16523.9385 -239.4560
ENERGY: 40 198.7436 799.5726 2896.9273 0.0000 -162811.4524 16417.9539 221.3030 0.0000 0.0000 -142276.9521 0.0000 -142276.9521 -142276.9521 0.0000 15011.2705 -2135.4695 534946.2959 15011.2705 -2135.4695
ENERGY: 60 130.5284 715.3440 2898.2166 0.0000 -167496.1550 15446.7542 315.2796 0.0000 0.0000 -147990.0323 0.0000 -147990.0323 -147990.0323 0.0000 13793.8841 -3799.3981 534946.2959 13793.8841 -3799.3981
ENERGY: 80 431.2725 765.6307 2904.3785 0.0000 -169937.5241 15121.1530 372.0121 0.0000 0.0000 -150343.0773 0.0000 -150343.0773 -150343.0773 0.0000 13270.3320 -4577.2430 534946.2959 13270.3320 -4577.2430
ENERGY: 100 129.7149 708.0654 2904.2780 0.0000 -171050.0665 15018.6532 384.2000 0.0000 0.0000 -151905.1551 0.0000 -151905.1551 -151905.1551 0.0000 13092.9126 -4843.6320 534946.2959 13092.9126 -4843.6320
TCL: Setting parameter constraintScaling to 5.0
TCL: Minimizing for 100 steps
ETITLE: TS BOND ANGLE DIHED IMPRP ELECT VDW BOUNDARY MISC KINETIC TOTAL TEMP POTENTIAL TOTAL3 TEMPAVG PRESSURE GPRESSURE VOLUME PRESSAVG GPRESSAVG
ENERGY: 100 129.7149 708.0654 2904.2780 0.0000 -171050.0665 15018.6532 192.1000 0.0000 0.0000 -152097.2551 0.0000 -152097.2551 -152097.2551 0.0000 13703.5078 -22944.4548 534946.2959 13703.5078 -22944.4548
ENERGY: 120 118.6823 680.2876 2909.9066 0.0000 -172396.3168 14830.1203 259.9550 0.0000 0.0000 -153597.3649 0.0000 -153597.3649 -153597.3649 0.0000 13320.9468 -4756.3081 534946.2959 13320.9468 -4756.3081
ENERGY: 140 109.1488 671.1468 2912.0864 0.0000 -174830.2837 14716.1437 337.7314 0.0000 0.0000 -156084.0266 0.0000 -156084.0266 -156084.0266 0.0000 12908.9555 -5423.1521 534946.2959 12908.9555 -5423.1521
ENERGY: 160 125.8559 667.1496 2914.1927 0.0000 -175967.0092 14735.1326 362.9180 0.0000 0.0000 -157161.7604 0.0000 -157161.7604 -157161.7604 0.0000 12806.8996 -5643.8472 534946.2959 12806.8996 -5643.8472
ENERGY: 180 303.5172 659.6772 2917.2964 0.0000 -177408.6684 14815.0118 395.3819 0.0000 0.0000 -158317.7839 0.0000 -158317.7839 -158317.7839 0.0000 12699.3190 -5900.9180 534946.2959 12699.3190 -5900.9180
ENERGY: 200 109.2083 628.4758 2923.3591 0.0000 -179544.0155 15071.1840 441.8872 0.0000 0.0000 -160369.9011 0.0000 -160369.9011 -160369.9011 0.0000 12659.9898 -6155.2396 534946.2959 12659.9898 -6155.2396
TCL: Setting parameter constraintScaling to 2.5
TCL: Minimizing for 100 steps
ETITLE: TS BOND ANGLE DIHED IMPRP ELECT VDW BOUNDARY MISC KINETIC TOTAL TEMP POTENTIAL TOTAL3 TEMPAVG PRESSURE GPRESSURE VOLUME PRESSAVG GPRESSAVG
ENERGY: 200 109.2083 628.4758 2923.3591 0.0000 -179544.0155 15071.1840 220.9436 0.0000 0.0000 -160590.8447 0.0000 -160590.8447 -160590.8447 0.0000 13208.4172 -25274.3967 534946.2959 13208.4172 -25274.3967
ENERGY: 220 169.1850 639.7469 2924.9590 0.0000 -180453.5553 15113.9241 291.2867 0.0000 0.0000 -161314.4536 0.0000 -161314.4536 -161314.4536 0.0000 13002.3816 -5917.9586 534946.2959 13002.3816 -5917.9586
ENERGY: 240 251.7907 643.1410 2921.4008 0.0000 -181893.8272 15358.8274 339.5565 0.0000 0.0000 -162379.1108 0.0000 -162379.1108 -162379.1108 0.0000 12964.0159 -6110.9229 534946.2959 12964.0159 -6110.9229
ENERGY: 260 174.1747 638.9938 2923.9233 0.0000 -184182.1053 15908.1014 437.6039 0.0000 0.0000 -164099.3082 0.0000 -164099.3082 -164099.3082 0.0000 13009.0516 -6309.9447 534946.2959 13009.0516 -6309.9447
ENERGY: 280 146.3059 648.6619 2918.2269 0.0000 -184712.9159 16068.9127 427.7231 0.0000 0.0000 -164503.0854 0.0000 -164503.0854 -164503.0854 0.0000 13127.9977 -6264.3147 534946.2959 13127.9977 -6264.3147
ENERGY: 300 230.0309 688.8422 2927.2673 0.0000 -186395.7704 16616.0817 426.0203 0.0000 0.0000 -165507.5280 0.0000 -165507.5280 -165507.5280 0.0000 13376.2185 -6206.8745 534946.2959 13376.2185 -6206.8745
TCL: Setting parameter constraintScaling to 1.25
TCL: Minimizing for 100 steps
ETITLE: TS BOND ANGLE DIHED IMPRP ELECT VDW BOUNDARY MISC KINETIC TOTAL TEMP POTENTIAL TOTAL3 TEMPAVG PRESSURE GPRESSURE VOLUME PRESSAVG GPRESSAVG
ENERGY: 300 230.0309 688.8422 2927.2673 0.0000 -186395.7704 16616.0817 213.0101 0.0000 0.0000 -165720.5381 0.0000 -165720.5381 -165720.5381 0.0000 13787.0507 -26288.0106 534946.2959 13787.0507 -26288.0106
ENERGY: 320 180.9945 668.3779 2910.7571 0.0000 -186923.6667 16728.9615 253.1209 0.0000 0.0000 -166181.4548 0.0000 -166181.4548 -166181.4548 0.0000 13766.8559 -5870.1312 534946.2959 13766.8559 -5870.1312
ENERGY: 340 199.8374 671.4048 2916.9346 0.0000 -188083.3950 17038.0071 324.0632 0.0000 0.0000 -166933.1478 0.0000 -166933.1478 -166933.1478 0.0000 13736.7796 -6012.0531 534946.2959 13736.7796 -6012.0531
ENERGY: 360 130.5478 639.8190 2905.6777 0.0000 -188729.8385 17256.2719 347.7334 0.0000 0.0000 -167449.7887 0.0000 -167449.7887 -167449.7887 0.0000 13820.6430 -6025.2264 534946.2959 13820.6430 -6025.2264
ENERGY: 380 154.4595 650.9835 2900.4520 0.0000 -189663.3939 17603.4839 350.4872 0.0000 0.0000 -168003.5278 0.0000 -168003.5278 -168003.5278 0.0000 14013.9609 -5947.5499 534946.2959 14013.9609 -5947.5499
ENERGY: 400 153.0213 661.9649 2906.0072 0.0000 -191334.0556 18240.0437 371.4978 0.0000 0.0000 -169001.5206 0.0000 -169001.5206 -169001.5206 0.0000 14298.6512 -5840.5317 534946.2959 14298.6512 -5840.5317
TCL: Setting parameter constraintScaling to 0.625
TCL: Minimizing for 100 steps
ETITLE: TS BOND ANGLE DIHED IMPRP ELECT VDW BOUNDARY MISC KINETIC TOTAL TEMP POTENTIAL TOTAL3 TEMPAVG PRESSURE GPRESSURE VOLUME PRESSAVG GPRESSAVG
ENERGY: 400 153.0213 661.9649 2906.0072 0.0000 -191334.0556 18240.0437 185.7489 0.0000 0.0000 -169187.2695 0.0000 -169187.2695 -169187.2695 0.0000 14586.9294 -26659.9795 534946.2959 14586.9294 -26659.9795
ENERGY: 420 150.2095 643.2683 2896.6003 0.0000 -191645.1049 18323.3123 212.9483 0.0000 0.0000 -169418.7662 0.0000 -169418.7662 -169418.7662 0.0000 14526.2749 -5629.9421 534946.2959 14526.2749 -5629.9421
ENERGY: 440 176.2695 668.7366 2888.7180 0.0000 -192920.2120 18738.5580 280.6082 0.0000 0.0000 -170167.3217 0.0000 -170167.3217 -170167.3217 0.0000 14576.5944 -5718.0334 534946.2959 14576.5944 -5718.0334
ENERGY: 460 168.1656 654.2933 2884.9794 0.0000 -194185.6711 19252.0848 305.0653 0.0000 0.0000 -170921.0827 0.0000 -170921.0827 -170921.0827 0.0000 14841.7556 -5602.6292 534946.2959 14841.7556 -5602.6292
ENERGY: 480 153.1472 654.9935 2882.6256 0.0000 -195197.8940 19674.2488 334.4650 0.0000 0.0000 -171498.4139 0.0000 -171498.4139 -171498.4139 0.0000 15028.2073 -5532.6181 534946.2959 15028.2073 -5532.6181
ENERGY: 500 159.1964 664.4021 2880.2823 0.0000 -195444.3525 19778.8867 324.1662 0.0000 0.0000 -171637.4188 0.0000 -171637.4188 -171637.4188 0.0000 15112.8687 -5471.7036 534946.2959 15112.8687 -5471.7036
TCL: Setting parameter constraintScaling to 0.3125
TCL: Minimizing for 100 steps
ETITLE: TS BOND ANGLE DIHED IMPRP ELECT VDW BOUNDARY MISC KINETIC TOTAL TEMP POTENTIAL TOTAL3 TEMPAVG PRESSURE GPRESSURE VOLUME PRESSAVG GPRESSAVG
ENERGY: 500 159.1964 664.4021 2880.2823 0.0000 -195444.3525 19778.8867 162.0831 0.0000 0.0000 -171799.5019 0.0000 -171799.5019 -171799.5019 0.0000 15312.9965 -26894.5417 534946.2959 15312.9965 -26894.5417
ENERGY: 520 180.1281 660.2308 2881.1319 0.0000 -195658.4816 19828.1767 177.0799 0.0000 0.0000 -171931.7342 0.0000 -171931.7342 -171931.7342 0.0000 15267.0946 -5342.6550 534946.2959 15267.0946 -5342.6550
ENERGY: 540 199.1005 693.9351 2874.2280 0.0000 -196215.2707 20021.0410 192.6646 0.0000 0.0000 -172234.3016 0.0000 -172234.3016 -172234.3016 0.0000 15340.0904 -5342.5574 534946.2959 15340.0904 -5342.5574
ENERGY: 560 267.5176 672.2148 2869.3771 0.0000 -196902.3598 20270.1394 208.9933 0.0000 0.0000 -172614.1176 0.0000 -172614.1176 -172614.1176 0.0000 15424.3453 -5331.0165 534946.2959 15424.3453 -5331.0165
ENERGY: 580 151.8268 641.5870 2866.6035 0.0000 -197181.3346 20375.6520 214.0040 0.0000 0.0000 -172931.6613 0.0000 -172931.6613 -172931.6613 0.0000 15504.3111 -5283.2309 534946.2959 15504.3111 -5283.2309
ENERGY: 600 163.9246 658.8393 2863.4154 0.0000 -197384.2724 20454.4395 216.7545 0.0000 0.0000 -173026.8990 0.0000 -173026.8990 -173026.8990 0.0000 15541.7977 -5267.8703 534946.2959 15541.7977 -5267.8703
TCL: Setting parameter constraintScaling to 0.15625
TCL: Minimizing for 100 steps
ETITLE: TS BOND ANGLE DIHED IMPRP ELECT VDW BOUNDARY MISC KINETIC TOTAL TEMP POTENTIAL TOTAL3 TEMPAVG PRESSURE GPRESSURE VOLUME PRESSAVG GPRESSAVG
ENERGY: 600 163.9246 658.8393 2863.4154 0.0000 -197384.2724 20454.4395 108.3772 0.0000 0.0000 -173135.2763 0.0000 -173135.2763 -173135.2763 0.0000 15660.5844 -26999.5976 534946.2959 15660.5844 -26999.5976
ENERGY: 620 184.4767 685.4145 2869.7558 0.0000 -197804.1619 20604.1347 115.1457 0.0000 0.0000 -173345.2346 0.0000 -173345.2346 -173345.2346 0.0000 15716.0516 -5145.2806 534946.2959 15716.0516 -5145.2806
ENERGY: 640 198.8828 678.9155 2855.7355 0.0000 -198350.7273 20804.1352 124.8703 0.0000 0.0000 -173688.1879 0.0000 -173688.1879 -173688.1879 0.0000 15783.7484 -5134.3498 534946.2959 15783.7484 -5134.3498
ENERGY: 660 164.0547 659.6316 2856.4560 0.0000 -198960.2884 21021.0703 134.9294 0.0000 0.0000 -174124.1464 0.0000 -174124.1464 -174124.1464 0.0000 15889.8816 -5103.0169 534946.2959 15889.8816 -5103.0169
ENERGY: 680 161.6842 657.5661 2852.3149 0.0000 -199126.5723 21093.8283 134.5745 0.0000 0.0000 -174226.6043 0.0000 -174226.6043 -174226.6043 0.0000 15922.1281 -5086.2042 534946.2959 15922.1281 -5086.2042
ENERGY: 700 203.5172 659.8391 2849.8494 0.0000 -199919.0586 21376.1940 145.7015 0.0000 0.0000 -174683.9575 0.0000 -174683.9575 -174683.9575 0.0000 16083.2758 -5024.2414 534946.2959 16083.2758 -5024.2414
TCL: Setting parameter constraintScaling to 0.078125
TCL: Minimizing for 100 steps
ETITLE: TS BOND ANGLE DIHED IMPRP ELECT VDW BOUNDARY MISC KINETIC TOTAL TEMP POTENTIAL TOTAL3 TEMPAVG PRESSURE GPRESSURE VOLUME PRESSAVG GPRESSAVG
ENERGY: 700 203.5172 659.8391 2849.8494 0.0000 -199919.0586 21376.1940 72.8507 0.0000 0.0000 -174756.8082 0.0000 -174756.8082 -174756.8082 0.0000 16154.6581 -27115.6741 534946.2959 16154.6581 -27115.6741
ENERGY: 720 367.6189 711.5270 2848.4646 0.0000 -200303.0352 21514.0741 77.4336 0.0000 0.0000 -174783.9170 0.0000 -174783.9170 -174783.9170 0.0000 16199.7101 -4961.2308 534946.2959 16199.7101 -4961.2308
ENERGY: 740 158.9061 662.4547 2845.4496 0.0000 -200676.1234 21643.2120 81.3319 0.0000 0.0000 -175284.7691 0.0000 -175284.7691 -175284.7691 0.0000 16235.7679 -4958.3427 534946.2959 16235.7679 -4958.3427
ENERGY: 760 177.5142 655.2108 2838.6875 0.0000 -200913.2542 21738.8274 82.9529 0.0000 0.0000 -175420.0614 0.0000 -175420.0614 -175420.0614 0.0000 16285.2506 -4928.1291 534946.2959 16285.2506 -4928.1291
ENERGY: 780 168.8177 670.7968 2835.8931 0.0000 -201847.3105 22109.6049 91.3167 0.0000 0.0000 -175970.8814 0.0000 -175970.8814 -175970.8814 0.0000 16463.0286 -4877.2518 534946.2959 16463.0286 -4877.2518
ENERGY: 800 162.7453 650.7249 2828.1319 0.0000 -202070.2375 22201.7482 92.6168 0.0000 0.0000 -176134.2704 0.0000 -176134.2704 -176134.2704 0.0000 16531.6260 -4827.0867 534946.2959 16531.6260 -4827.0867
TCL: Setting parameter constraintScaling to 0.0390625
TCL: Minimizing for 100 steps
ETITLE: TS BOND ANGLE DIHED IMPRP ELECT VDW BOUNDARY MISC KINETIC TOTAL TEMP POTENTIAL TOTAL3 TEMPAVG PRESSURE GPRESSURE VOLUME PRESSAVG GPRESSAVG
ENERGY: 800 162.7453 650.7249 2828.1319 0.0000 -202070.2375 22201.7482 46.3084 0.0000 0.0000 -176180.5788 0.0000 -176180.5788 -176180.5788 0.0000 16573.0730 -27213.2866 534946.2959 16573.0730 -27213.2866
ENERGY: 820 166.7888 659.3710 2832.3349 0.0000 -202284.1744 22273.9763 48.0238 0.0000 0.0000 -176303.6796 0.0000 -176303.6796 -176303.6796 0.0000 16582.0177 -4802.6125 534946.2959 16582.0177 -4802.6125
ENERGY: 840 172.6530 650.4790 2824.0876 0.0000 -202649.8410 22426.3710 49.9973 0.0000 0.0000 -176526.2531 0.0000 -176526.2531 -176526.2531 0.0000 16664.0836 -4759.2279 534946.2959 16664.0836 -4759.2279
ENERGY: 860 162.8108 650.4784 2823.9683 0.0000 -203091.5957 22601.7404 52.2519 0.0000 0.0000 -176800.3459 0.0000 -176800.3459 -176800.3459 0.0000 16745.3446 -4730.4500 534946.2959 16745.3446 -4730.4500
ENERGY: 880 191.8299 673.5193 2826.5097 0.0000 -203610.1459 22835.1183 54.9378 0.0000 0.0000 -177028.2309 0.0000 -177028.2309 -177028.2309 0.0000 16858.6407 -4679.8469 534946.2959 16858.6407 -4679.8469
ENERGY: 900 164.7682 650.4778 2817.6554 0.0000 -203859.0760 22936.4011 55.8212 0.0000 0.0000 -177233.9523 0.0000 -177233.9523 -177233.9523 0.0000 16937.6901 -4637.1323 534946.2959 16937.6901 -4637.1323
TCL: Setting parameter constraintScaling to 0.01953125
TCL: Minimizing for 100 steps
ETITLE: TS BOND ANGLE DIHED IMPRP ELECT VDW BOUNDARY MISC KINETIC TOTAL TEMP POTENTIAL TOTAL3 TEMPAVG PRESSURE GPRESSURE VOLUME PRESSAVG GPRESSAVG
ENERGY: 900 164.7682 650.4778 2817.6554 0.0000 -203859.0760 22936.4011 27.9106 0.0000 0.0000 -177261.8629 0.0000 -177261.8629 -177261.8629 0.0000 16961.1515 -27250.4783 534946.2959 16961.1515 -27250.4783
ENERGY: 920 162.5129 651.7284 2817.9768 0.0000 -204014.0591 22993.1159 28.3529 0.0000 0.0000 -177360.3722 0.0000 -177360.3722 -177360.3722 0.0000 16996.0402 -4599.0452 534946.2959 16996.0402 -4599.0452
ENERGY: 940 165.8239 652.3291 2815.7044 0.0000 -204172.9505 23061.1415 29.0090 0.0000 0.0000 -177448.9425 0.0000 -177448.9425 -177448.9425 0.0000 17003.8187 -4602.2805 534946.2959 17003.8187 -4602.2805
ENERGY: 960 240.8498 666.3277 2815.6975 0.0000 -204645.4077 23267.3228 30.4112 0.0000 0.0000 -177624.7986 0.0000 -177624.7986 -177624.7986 0.0000 17117.6640 -4552.5175 534946.2959 17117.6640 -4552.5175
ENERGY: 980 162.5341 651.6286 2812.5425 0.0000 -204932.6227 23391.8547 31.2907 0.0000 0.0000 -177882.7720 0.0000 -177882.7720 -177882.7720 0.0000 17179.1322 -4515.3081 534946.2959 17179.1322 -4515.3081
ENERGY: 1000 199.1422 675.0131 2812.4714 0.0000 -205184.6906 23507.7716 32.0849 0.0000 0.0000 -177958.2073 0.0000 -177958.2073 -177958.2073 0.0000 17217.4857 -4501.6271 534946.2959 17217.4857 -4501.6271
TCL: Setting parameter constraintScaling to 0
TCL: Minimizing for 5000 steps
ETITLE: TS BOND ANGLE DIHED IMPRP ELECT VDW BOUNDARY MISC KINETIC TOTAL TEMP POTENTIAL TOTAL3 TEMPAVG PRESSURE GPRESSURE VOLUME PRESSAVG GPRESSAVG
ENERGY: 1000 199.1422 675.0131 2812.4714 0.0000 -205184.6906 23507.7716 0.0000 0.0000 0.0000 -177990.2922 0.0000 -177990.2922 -177990.2922 0.0000 17243.1556 -27284.0332 534946.2959 17243.1556 -27284.0332
ENERGY: 2000 169.1276 662.5578 2799.6862 0.0000 -214534.3413 27622.5325 0.0000 0.0000 0.0000 -183280.4372 0.0000 -183280.4372 -183280.4372 0.0000 19434.1877 -3348.4953 534946.2959 19434.1877 -3348.4953
ENERGY: 3000 168.4823 668.3738 2798.2743 0.0000 -217263.3557 28855.6664 0.0000 0.0000 0.0000 -184772.5589 0.0000 -184772.5589 -184772.5589 0.0000 20102.8467 -2949.4920 534946.2959 20102.8467 -2949.4920
ENERGY: 4000 166.3615 665.4608 2792.9225 0.0000 -218702.1300 29382.8149 0.0000 0.0000 0.0000 -185694.5703 0.0000 -185694.5703 -185694.5703 0.0000 20381.5770 -2824.9962 534946.2959 20381.5770 -2824.9962
ENERGY: 5000 165.3267 664.2888 2787.7537 0.0000 -219427.9609 29654.4221 0.0000 0.0000 0.0000 -186156.1696 0.0000 -186156.1696 -186156.1696 0.0000 20510.9386 -2746.3762 534946.2959 20510.9386 -2746.3762
ENERGY: 6000 165.6543 662.1125 2787.8653 0.0000 -219827.4141 29799.9999 0.0000 0.0000 0.0000 -186411.7821 0.0000 -186411.7821 -186411.7821 0.0000 20588.1890 -2712.1232 534946.2959 20588.1890 -2712.1232
