Info: SIMULATION PARAMETERS:
Info: TIMESTEP               2
Info: NUMBER OF STEPS        0
Info: STEPS PER CYCLE        10
Info: PERIODIC CELL BASIS 1  72.449 0 0
Info: PERIODIC CELL BASIS 2  0 93.247 0
Info: PERIODIC CELL BASIS 3  0 0 79.185
Info: PERIODIC CELL CENTER   -0.248 -0.156 -0.047
Info: WRAPPING WATERS AROUND PERIODIC BOUNDARIES ON OUTPUT.
Info: WRAPPING ALL CLUSTERS AROUND PERIODIC BOUNDARIES ON OUTPUT.
Info: FIRST LDB TIMESTEP     50
Info: LAST LDB TIMESTEP     -1
Info: HOM BACKGROUND SCALING 1
Info: PME BACKGROUND SCALING 1
Info: MIN ATOMS PER PATCH    40
Info: INITIAL TEMPERATURE    0
Info: CENTER OF MASS MOVING INITIALLY? NO
Info: DIELECTRIC             1
Info: EXCLUDE                SCALED ONE-FOUR
Info: 1-4 ELECTROSTATICS SCALED BY 0.833333
Info: MODIFIED 1-4 VDW PARAMETERS WILL BE USED
Info: NO DCD TRAJECTORY OUTPUT
Info: NO EXTENDED SYSTEM TRAJECTORY OUTPUT
Info: NO VELOCITY DCD OUTPUT
Info: NO FORCE DCD OUTPUT
Info: OUTPUT FILENAME        ../replicas/rep9/equilibration/eq0
Info: NO RESTART FILE
Info: SWITCHING ACTIVE
Info: SWITCHING ON           10
Info: SWITCHING OFF          12
Info: PAIRLIST DISTANCE      13.5
Info: PAIRLIST SHRINK RATE   0.01
Info: PAIRLIST GROW RATE     0.01
Info: PAIRLIST TRIGGER       0.3
Info: PAIRLISTS PER CYCLE    2
Info: PAIRLISTS ENABLED
Info: MARGIN                 0
Info: HYDROGEN GROUP CUTOFF  2.5
Info: PATCH DIMENSION        16
Info: ENERGY OUTPUT STEPS    500
Info: CROSSTERM ENERGY INCLUDED IN DIHEDRAL
Info: TIMING OUTPUT STEPS    5000
Info: PRESSURE OUTPUT STEPS  500
Info: HARMONIC CONSTRAINTS ACTIVE
Info: HARMONIC CONS EXP      2
Info: HARMONIC CONS SCALING  10
Info: CONJUGATE GRADIENT MINIMIZATION ACTIVE
Info: LINE MINIMIZATION GOAL = 0.001
Info: BABY STEP SIZE = 0.01
Info: TINY STEP SIZE = 1e-06
Info: PARTICLE MESH EWALD (PME) ACTIVE
Info: PME TOLERANCE               1e-06
Info: PME EWALD COEFFICIENT       0.257952
Info: PME INTERPOLATION ORDER     4
Info: PME GRID DIMENSIONS         80 96 80
Info: PME MAXIMUM GRID SPACING    1
Info: FULL ELECTROSTATIC EVALUATION FREQUENCY      2
Info: USING VERLET I (r-RESPA) MTS SCHEME.
Info: C1 SPLITTING OF LONG RANGE ELECTROSTATICS
Info: PLACING ATOMS IN PATCHES BY HYDROGEN GROUPS
Info: RIGID BONDS TO HYDROGEN : ALL
Info:         ERROR TOLERANCE : 1e-05
Info:          MAX ITERATIONS : 100
Info: RIGID WATER USING SETTLE ALGORITHM
Info: RANDOM NUMBER SEED     1503691519
Info: USE HYDROGEN BONDS?    NO
Info: Using AMBER format force field!
Info: AMBER PARM FILE        ../build/complex.top
Info: COORDINATE PDB         ../build/complex.pdb
Info: Exclusions in PARM file will be ignored!
Info: SCNB (VDW SCALING)     2
Info: USING ARITHMETIC MEAN TO COMBINE L-J SIGMA PARAMETERS
Info: SUMMARY OF PARAMETERS:
Info: 71 BONDS
Info: 145 ANGLES
Info: 76 DIHEDRAL
Info: 0 IMPROPER
Info: 0 CROSSTERM
Info: 0 VDW
Info: 190 VDW_PAIRS
Info: 0 NBTHOLE_PAIRS
Info: STRUCTURE SUMMARY:
Info: 49394 ATOMS
Info: 49448 BONDS
Info: 8698 ANGLES
Info: 18780 DIHEDRALS
Info: 0 IMPROPERS
Info: 0 CROSSTERMS
Info: 0 EXCLUSIONS
Info: 2336 CONSTRAINTS
Info: 47058 RIGID BONDS
Info: 101124 DEGREES OF FREEDOM
Info: 17225 HYDROGEN GROUPS
Info: 4 ATOMS IN LARGEST HYDROGEN GROUP
Info: 17225 MIGRATION GROUPS
Info: 4 ATOMS IN LARGEST MIGRATION GROUP
Info: TOTAL MASS = 301478 amu
Info: TOTAL CHARGE = 1.00115e-05 e
Info: MASS DENSITY = 0.935846 g/cm^3
Info: ATOM DENSITY = 0.0923345 atoms/A^3
Info: ADDED 70656 IMPLICIT EXCLUSIONS
Info: NONBONDED TABLE R-SQUARED SPACING: 0.0625
Info: NONBONDED TABLE SIZE: 769 POINTS
Info: REMOVING COM VELOCITY 0 0 0
TCL: Minimizing for 100 steps
ETITLE: TS BOND ANGLE DIHED IMPRP ELECT VDW BOUNDARY MISC KINETIC TOTAL TEMP POTENTIAL TOTAL3 TEMPAVG PRESSURE GPRESSURE VOLUME PRESSAVG GPRESSAVG
ENERGY: 0 155.4176 1012.2698 2855.7272 0.0000 -154496.7913 207729.2052 0.0468 0.0000 0.0000 57255.8753 0.0000 57255.8753 57255.8753 0.0000 116350.2532 86546.1670 534946.2959 116350.2532 86546.1670
ENERGY: 20 304.7557 935.7912 2893.4663 0.0000 -158672.9409 17936.6592 143.9455 0.0000 0.0000 -136458.3231 0.0000 -136458.3231 -136458.3231 0.0000 16523.9384 -239.4561 534946.2959 16523.9384 -239.4561
ENERGY: 40 198.7459 799.5730 2896.9273 0.0000 -162811.4528 16417.9538 221.3030 0.0000 0.0000 -142276.9498 0.0000 -142276.9498 -142276.9498 0.0000 15011.2704 -2135.4696 534946.2959 15011.2704 -2135.4696
ENERGY: 60 130.5281 715.3440 2898.2166 0.0000 -167496.1583 15446.7537 315.2797 0.0000 0.0000 -147990.0363 0.0000 -147990.0363 -147990.0363 0.0000 13793.8834 -3799.3991 534946.2959 13793.8834 -3799.3991
ENERGY: 80 431.2721 765.6305 2904.3788 0.0000 -169937.5362 15121.1516 372.0124 0.0000 0.0000 -150343.0908 0.0000 -150343.0908 -150343.0908 0.0000 13270.3292 -4577.2469 534946.2959 13270.3292 -4577.2469
ENERGY: 100 129.7124 708.0643 2904.2781 0.0000 -171050.0644 15018.6540 384.2001 0.0000 0.0000 -151905.1556 0.0000 -151905.1556 -151905.1556 0.0000 13092.9132 -4843.6304 534946.2959 13092.9132 -4843.6304
TCL: Setting parameter constraintScaling to 5.0
TCL: Minimizing for 100 steps
ETITLE: TS BOND ANGLE DIHED IMPRP ELECT VDW BOUNDARY MISC KINETIC TOTAL TEMP POTENTIAL TOTAL3 TEMPAVG PRESSURE GPRESSURE VOLUME PRESSAVG GPRESSAVG
ENERGY: 100 129.7124 708.0643 2904.2781 0.0000 -171050.0644 15018.6540 192.1000 0.0000 0.0000 -152097.2556 0.0000 -152097.2556 -152097.2556 0.0000 13703.5084 -22944.4537 534946.2959 13703.5084 -22944.4537
ENERGY: 120 118.6815 680.2874 2909.9066 0.0000 -172396.3074 14830.1209 259.9547 0.0000 0.0000 -153597.3562 0.0000 -153597.3562 -153597.3562 0.0000 13320.9485 -4756.3055 534946.2959 13320.9485 -4756.3055
ENERGY: 140 109.1475 671.1469 2912.0863 0.0000 -174830.2313 14716.1441 337.7299 0.0000 0.0000 -156083.9766 0.0000 -156083.9766 -156083.9766 0.0000 12908.9635 -5423.1385 534946.2959 12908.9635 -5423.1385
ENERGY: 160 125.8480 667.1509 2914.1925 0.0000 -175967.0610 14735.1350 362.9190 0.0000 0.0000 -157161.8156 0.0000 -157161.8156 -157161.8156 0.0000 12806.8936 -5637.8189 534946.2959 12806.8936 -5637.8189
ENERGY: 180 303.4828 659.6835 2917.2967 0.0000 -177408.7555 14815.0180 395.3834 0.0000 0.0000 -158317.8911 0.0000 -158317.8911 -158317.8911 0.0000 12699.3129 -5894.8423 534946.2959 12699.3129 -5894.8423
ENERGY: 200 109.2107 628.4722 2923.3579 0.0000 -179543.8206 15071.1508 441.8804 0.0000 0.0000 -160369.7486 0.0000 -160369.7486 -160369.7486 0.0000 12659.9899 -6155.4115 534946.2959 12659.9899 -6155.4115
TCL: Setting parameter constraintScaling to 2.5
TCL: Minimizing for 100 steps
ETITLE: TS BOND ANGLE DIHED IMPRP ELECT VDW BOUNDARY MISC KINETIC TOTAL TEMP POTENTIAL TOTAL3 TEMPAVG PRESSURE GPRESSURE VOLUME PRESSAVG GPRESSAVG
ENERGY: 200 109.2107 628.4722 2923.3579 0.0000 -179543.8206 15071.1508 220.9402 0.0000 0.0000 -160590.6887 0.0000 -160590.6887 -160590.6887 0.0000 13208.4127 -25274.5530 534946.2959 13208.4127 -25274.5530
ENERGY: 220 275.1223 652.0882 2925.2548 0.0000 -180395.4756 15108.8507 287.9599 0.0000 0.0000 -161146.1998 0.0000 -161146.1998 -161146.1998 0.0000 12999.9869 -5914.8052 534946.2959 12999.9869 -5914.8052
ENERGY: 240 144.5066 629.0492 2922.0905 0.0000 -181649.8198 15308.6623 331.5168 0.0000 0.0000 -162313.9944 0.0000 -162313.9944 -162313.9944 0.0000 12968.6769 -6076.0364 534946.2959 12968.6769 -6076.0364
ENERGY: 260 238.6194 648.3100 2922.1937 0.0000 -183609.7098 15752.7864 410.0725 0.0000 0.0000 -163637.7277 0.0000 -163637.7277 -163637.7277 0.0000 12997.5809 -6265.8428 534946.2959 12997.5809 -6265.8428
ENERGY: 280 122.3261 649.6601 2918.8936 0.0000 -184726.4450 16073.0778 431.5462 0.0000 0.0000 -164530.9412 0.0000 -164530.9412 -164530.9412 0.0000 13123.3042 -6271.8657 534946.2959 13123.3042 -6271.8657
ENERGY: 300 230.1473 690.1705 2927.5206 0.0000 -186444.2533 16634.3768 425.1701 0.0000 0.0000 -165536.8679 0.0000 -165536.8679 -165536.8679 0.0000 13387.4184 -6200.9285 534946.2959 13387.4184 -6200.9285
TCL: Setting parameter constraintScaling to 1.25
TCL: Minimizing for 100 steps
ETITLE: TS BOND ANGLE DIHED IMPRP ELECT VDW BOUNDARY MISC KINETIC TOTAL TEMP POTENTIAL TOTAL3 TEMPAVG PRESSURE GPRESSURE VOLUME PRESSAVG GPRESSAVG
ENERGY: 300 230.1473 690.1705 2927.5206 0.0000 -186444.2533 16634.3768 212.5851 0.0000 0.0000 -165749.4530 0.0000 -165749.4530 -165749.4530 0.0000 13797.9100 -26288.5309 534946.2959 13797.9100 -26288.5309
ENERGY: 320 165.0788 646.4315 2911.1254 0.0000 -186871.7448 16719.1846 245.1098 0.0000 0.0000 -166184.8149 0.0000 -166184.8149 -166184.8149 0.0000 13782.4747 -5846.8438 534946.2959 13782.4747 -5846.8438
ENERGY: 340 224.2271 700.8908 2918.8495 0.0000 -188683.6812 17225.7981 375.0410 0.0000 0.0000 -167238.8747 0.0000 -167238.8747 -167238.8747 0.0000 13719.7790 -6093.9873 534946.2959 13719.7790 -6093.9873
ENERGY: 360 155.7584 658.9142 2903.0414 0.0000 -188965.9742 17341.6350 354.6277 0.0000 0.0000 -167551.9974 0.0000 -167551.9974 -167551.9974 0.0000 13845.6597 -6016.2259 534946.2959 13845.6597 -6016.2259
ENERGY: 380 304.2006 682.1230 2914.5414 0.0000 -190824.7029 18069.6971 351.3157 0.0000 0.0000 -168502.8251 0.0000 -168502.8251 -168502.8251 0.0000 14226.1201 -5847.9151 534946.2959 14226.1201 -5847.9151
ENERGY: 400 145.0490 661.6512 2907.3853 0.0000 -192586.2630 18878.1717 382.6463 0.0000 0.0000 -169611.3595 0.0000 -169611.3595 -169611.3595 0.0000 14636.8505 -5659.2036 534946.2959 14636.8505 -5659.2036
TCL: Setting parameter constraintScaling to 0.625
TCL: Minimizing for 100 steps
ETITLE: TS BOND ANGLE DIHED IMPRP ELECT VDW BOUNDARY MISC KINETIC TOTAL TEMP POTENTIAL TOTAL3 TEMPAVG PRESSURE GPRESSURE VOLUME PRESSAVG GPRESSAVG
ENERGY: 400 145.0490 661.6512 2907.3853 0.0000 -192586.2630 18878.1717 191.3231 0.0000 0.0000 -169802.6827 0.0000 -169802.6827 -169802.6827 0.0000 14935.7059 -26609.0203 534946.2959 14935.7059 -26609.0203
ENERGY: 420 374.4092 693.3793 2901.0592 0.0000 -192927.9474 18897.6911 224.6274 0.0000 0.0000 -169836.7811 0.0000 -169836.7811 -169836.7811 0.0000 14792.1283 -5509.6989 534946.2959 14792.1283 -5509.6989
ENERGY: 440 173.2149 691.0824 2891.5004 0.0000 -193462.3133 19023.0301 274.4194 0.0000 0.0000 -170409.0660 0.0000 -170409.0660 -170409.0660 0.0000 14763.0321 -5606.0055 534946.2959 14763.0321 -5606.0055
ENERGY: 460 166.5414 695.2933 2896.2749 0.0000 -194068.9119 19211.4654 320.2718 0.0000 0.0000 -170779.0650 0.0000 -170779.0650 -170779.0650 0.0000 14758.6004 -5673.4195 534946.2959 14758.6004 -5673.4195
ENERGY: 480 162.7361 658.0489 2882.8211 0.0000 -194272.5700 19286.7783 301.3835 0.0000 0.0000 -170980.8021 0.0000 -170980.8021 -170980.8021 0.0000 14845.5386 -5607.6768 534946.2959 14845.5386 -5607.6768
ENERGY: 500 155.4790 645.0242 2884.6266 0.0000 -194629.5213 19462.4553 282.1784 0.0000 0.0000 -171199.7579 0.0000 -171199.7579 -171199.7579 0.0000 14997.7883 -5502.2050 534946.2959 14997.7883 -5502.2050
TCL: Setting parameter constraintScaling to 0.3125
TCL: Minimizing for 100 steps
ETITLE: TS BOND ANGLE DIHED IMPRP ELECT VDW BOUNDARY MISC KINETIC TOTAL TEMP POTENTIAL TOTAL3 TEMPAVG PRESSURE GPRESSURE VOLUME PRESSAVG GPRESSAVG
ENERGY: 500 155.4790 645.0242 2884.6266 0.0000 -194629.5213 19462.4553 141.0892 0.0000 0.0000 -171340.8471 0.0000 -171340.8471 -171340.8471 0.0000 15183.0628 -26833.7244 534946.2959 15183.0628 -26833.7244
ENERGY: 520 231.0133 719.6243 2889.3315 0.0000 -195181.7382 19620.8044 167.3950 0.0000 0.0000 -171553.5696 0.0000 -171553.5696 -171553.5696 0.0000 15171.5752 -5390.1701 534946.2959 15171.5752 -5390.1701
ENERGY: 540 216.0124 680.2509 2876.3469 0.0000 -195601.8972 19773.2262 182.0355 0.0000 0.0000 -171874.0252 0.0000 -171874.0252 -171874.0252 0.0000 15209.6815 -5381.1146 534946.2959 15209.6815 -5381.1146
ENERGY: 560 364.8360 763.1991 2886.2811 0.0000 -195995.4603 19926.5557 183.4751 0.0000 0.0000 -171871.1134 0.0000 -171871.1134 -171871.1134 0.0000 15281.9676 -5366.0098 534946.2959 15281.9676 -5366.0098
ENERGY: 580 148.9185 652.3819 2872.0624 0.0000 -196619.9977 20162.8919 190.9572 0.0000 0.0000 -172592.7859 0.0000 -172592.7859 -172592.7859 0.0000 15449.4985 -5277.4605 534946.2959 15449.4985 -5277.4605
ENERGY: 600 182.4940 673.1971 2866.6665 0.0000 -198275.0243 20864.7678 236.7000 0.0000 0.0000 -173451.1989 0.0000 -173451.1989 -173451.1989 0.0000 15733.9074 -5185.3987 534946.2959 15733.9074 -5185.3987
TCL: Setting parameter constraintScaling to 0.15625
TCL: Minimizing for 100 steps
ETITLE: TS BOND ANGLE DIHED IMPRP ELECT VDW BOUNDARY MISC KINETIC TOTAL TEMP POTENTIAL TOTAL3 TEMPAVG PRESSURE GPRESSURE VOLUME PRESSAVG GPRESSAVG
ENERGY: 600 182.4940 673.1971 2866.6665 0.0000 -198275.0243 20864.7678 118.3500 0.0000 0.0000 -173569.5489 0.0000 -173569.5489 -173569.5489 0.0000 15860.0776 -27013.9355 534946.2959 15860.0776 -27013.9355
ENERGY: 620 160.2782 646.6147 2857.0165 0.0000 -198485.0472 20901.3938 121.5776 0.0000 0.0000 -173798.1664 0.0000 -173798.1664 -173798.1664 0.0000 15869.1246 -5075.7908 534946.2959 15869.1246 -5075.7908
ENERGY: 640 195.4927 671.1100 2850.9156 0.0000 -199209.0832 21146.7695 135.0505 0.0000 0.0000 -174209.7449 0.0000 -174209.7449 -174209.7449 0.0000 15956.9400 -5072.6067 534946.2959 15956.9400 -5072.6067
ENERGY: 660 159.8865 653.3158 2848.0323 0.0000 -199558.7666 21262.4591 141.6433 0.0000 0.0000 -174493.4297 0.0000 -174493.4297 -174493.4297 0.0000 15997.9815 -5065.1524 534946.2959 15997.9815 -5065.1524
ENERGY: 680 171.8379 665.2474 2849.2488 0.0000 -199960.4494 21411.1021 143.2161 0.0000 0.0000 -174719.7972 0.0000 -174719.7972 -174719.7972 0.0000 16091.2450 -5022.2238 534946.2959 16091.2450 -5022.2238
ENERGY: 700 193.9283 681.3964 2847.1333 0.0000 -200790.4334 21757.2804 151.3724 0.0000 0.0000 -175159.3226 0.0000 -175159.3226 -175159.3226 0.0000 16280.6337 -4928.0150 534946.2959 16280.6337 -4928.0150
TCL: Setting parameter constraintScaling to 0.078125
TCL: Minimizing for 100 steps
ETITLE: TS BOND ANGLE DIHED IMPRP ELECT VDW BOUNDARY MISC KINETIC TOTAL TEMP POTENTIAL TOTAL3 TEMPAVG PRESSURE GPRESSURE VOLUME PRESSAVG GPRESSAVG
ENERGY: 700 193.9283 681.3964 2847.1333 0.0000 -200790.4334 21757.2804 75.6862 0.0000 0.0000 -175235.0088 0.0000 -175235.0088 -175235.0088 0.0000 16354.7016 -27126.7046 534946.2959 16354.7016 -27126.7046
ENERGY: 720 216.0257 678.7699 2839.0873 0.0000 -201038.7556 21809.5872 80.7045 0.0000 0.0000 -175414.5810 0.0000 -175414.5810 -175414.5810 0.0000 16339.8042 -4897.0679 534946.2959 16339.8042 -4897.0679
ENERGY: 740 175.3412 670.7935 2836.6366 0.0000 -201441.9982 21955.6481 86.5820 0.0000 0.0000 -175716.9968 0.0000 -175716.9968 -175716.9968 0.0000 16386.7688 -4900.1376 534946.2959 16386.7688 -4900.1376
ENERGY: 760 166.8411 663.4909 2839.5069 0.0000 -201726.0165 22070.0578 86.2763 0.0000 0.0000 -175899.8434 0.0000 -175899.8434 -175899.8434 0.0000 16465.2649 -4854.3285 534946.2959 16465.2649 -4854.3285
ENERGY: 780 330.7678 736.9082 2845.7434 0.0000 -202659.8087 22483.0452 94.1379 0.0000 0.0000 -176169.2061 0.0000 -176169.2061 -176169.2061 0.0000 16686.0782 -4751.0870 534946.2959 16686.0782 -4751.0870
ENERGY: 800 161.3601 650.2687 2830.0587 0.0000 -202749.4326 22494.8950 95.0100 0.0000 0.0000 -176517.8402 0.0000 -176517.8402 -176517.8402 0.0000 16700.8152 -4743.0108 534946.2959 16700.8152 -4743.0108
TCL: Setting parameter constraintScaling to 0.0390625
TCL: Minimizing for 100 steps
ETITLE: TS BOND ANGLE DIHED IMPRP ELECT VDW BOUNDARY MISC KINETIC TOTAL TEMP POTENTIAL TOTAL3 TEMPAVG PRESSURE GPRESSURE VOLUME PRESSAVG GPRESSAVG
ENERGY: 800 161.3601 650.2687 2830.0587 0.0000 -202749.4326 22494.8950 47.5050 0.0000 0.0000 -176565.3452 0.0000 -176565.3452 -176565.3452 0.0000 16743.1226 -27209.0331 534946.2959 16743.1226 -27209.0331
ENERGY: 820 166.1999 646.7021 2826.7785 0.0000 -202916.2769 22542.3571 49.2034 0.0000 0.0000 -176685.0360 0.0000 -176685.0360 -176685.0360 0.0000 16730.0926 -4727.6730 534946.2959 16730.0926 -4727.6730
ENERGY: 840 196.1042 666.4172 2825.2962 0.0000 -203285.7615 22688.4827 51.6793 0.0000 0.0000 -176857.7818 0.0000 -176857.7818 -176857.7818 0.0000 16806.3957 -4702.0401 534946.2959 16806.3957 -4702.0401
ENERGY: 860 226.3646 663.1686 2827.5897 0.0000 -203983.4731 23016.7696 54.1538 0.0000 0.0000 -177195.4266 0.0000 -177195.4266 -177195.4266 0.0000 16992.5463 -4590.9036 534946.2959 16992.5463 -4590.9036
ENERGY: 880 166.2440 659.1038 2815.1103 0.0000 -204363.1730 23154.9694 57.3931 0.0000 0.0000 -177510.3523 0.0000 -177510.3523 -177510.3523 0.0000 17030.6789 -4594.2395 534946.2959 17030.6789 -4594.2395
ENERGY: 900 169.4421 670.9485 2819.6513 0.0000 -204548.7937 23241.0708 59.2622 0.0000 0.0000 -177588.4187 0.0000 -177588.4187 -177588.4187 0.0000 17065.4048 -4584.3721 534946.2959 17065.4048 -4584.3721
TCL: Setting parameter constraintScaling to 0.01953125
TCL: Minimizing for 100 steps
ETITLE: TS BOND ANGLE DIHED IMPRP ELECT VDW BOUNDARY MISC KINETIC TOTAL TEMP POTENTIAL TOTAL3 TEMPAVG PRESSURE GPRESSURE VOLUME PRESSAVG GPRESSAVG
ENERGY: 900 169.4421 670.9485 2819.6513 0.0000 -204548.7937 23241.0708 29.6311 0.0000 0.0000 -177618.0498 0.0000 -177618.0498 -177618.0498 0.0000 17089.4331 -27282.8961 534946.2959 17089.4331 -27282.8961
ENERGY: 920 166.4160 651.4514 2814.5491 0.0000 -204694.3946 23290.9746 29.5897 0.0000 0.0000 -177741.4137 0.0000 -177741.4137 -177741.4137 0.0000 17130.1516 -4538.5081 534946.2959 17130.1516 -4538.5081
ENERGY: 940 163.3673 647.4070 2814.0818 0.0000 -204980.5197 23421.4680 30.3077 0.0000 0.0000 -177903.8879 0.0000 -177903.8879 -177903.8879 0.0000 17209.0050 -4492.3570 534946.2959 17209.0050 -4492.3570
ENERGY: 960 406.9460 727.9490 2818.1316 0.0000 -205294.6088 23553.3067 31.8437 0.0000 0.0000 -177756.4318 0.0000 -177756.4318 -177756.4318 0.0000 17232.2082 -4504.4451 534946.2959 17232.2082 -4504.4451
ENERGY: 980 172.0903 672.6132 2811.9477 0.0000 -205919.4410 23844.6296 34.1565 0.0000 0.0000 -178384.0038 0.0000 -178384.0038 -178384.0038 0.0000 17393.7317 -4414.7599 534946.2959 17393.7317 -4414.7599
ENERGY: 1000 169.7899 655.7040 2807.9497 0.0000 -206008.4328 23868.9847 34.0571 0.0000 0.0000 -178471.9474 0.0000 -178471.9474 -178471.9474 0.0000 17417.4991 -4404.2516 534946.2959 17417.4991 -4404.2516
TCL: Setting parameter constraintScaling to 0
TCL: Minimizing for 5000 steps
ETITLE: TS BOND ANGLE DIHED IMPRP ELECT VDW BOUNDARY MISC KINETIC TOTAL TEMP POTENTIAL TOTAL3 TEMPAVG PRESSURE GPRESSURE VOLUME PRESSAVG GPRESSAVG
ENERGY: 1000 169.7899 655.7040 2807.9497 0.0000 -206008.4328 23868.9847 0.0000 0.0000 0.0000 -178506.0045 0.0000 -178506.0045 -178506.0045 0.0000 17444.0406 -27280.8448 534946.2959 17444.0406 -27280.8448
ENERGY: 2000 169.4572 657.7814 2800.0453 0.0000 -214578.8119 27644.4258 0.0000 0.0000 0.0000 -183307.1021 0.0000 -183307.1021 -183307.1021 0.0000 19449.9639 -3334.8624 534946.2959 19449.9639 -3334.8624
ENERGY: 3000 167.4359 664.5399 2797.7463 0.0000 -217557.9302 28902.6130 0.0000 0.0000 0.0000 -185025.5951 0.0000 -185025.5951 -185025.5951 0.0000 20124.1422 -2969.4330 534946.2959 20124.1422 -2969.4330
ENERGY: 4000 182.2318 666.3064 2791.6759 0.0000 -218837.2122 29468.8078 0.0000 0.0000 0.0000 -185728.1904 0.0000 -185728.1904 -185728.1904 0.0000 20430.2661 -2791.1063 534946.2959 20430.2661 -2791.1063
ENERGY: 5000 165.1907 661.4940 2788.4984 0.0000 -219549.2721 29771.1950 0.0000 0.0000 0.0000 -186162.8940 0.0000 -186162.8940 -186162.8940 0.0000 20586.2198 -2713.4187 534946.2959 20586.2198 -2713.4187
ENERGY: 6000 165.5322 663.3038 2786.9177 0.0000 -219981.6598 29948.7563 0.0000 0.0000 0.0000 -186417.1499 0.0000 -186417.1499 -186417.1499 0.0000 20678.7125 -2672.6246 534946.2959 20678.7125 -2672.6246
