Info: SIMULATION PARAMETERS:
Info: TIMESTEP               2
Info: NUMBER OF STEPS        0
Info: STEPS PER CYCLE        10
Info: PERIODIC CELL BASIS 1  72.449 0 0
Info: PERIODIC CELL BASIS 2  0 93.247 0
Info: PERIODIC CELL BASIS 3  0 0 79.185
Info: PERIODIC CELL CENTER   -0.248 -0.156 -0.047
Info: WRAPPING WATERS AROUND PERIODIC BOUNDARIES ON OUTPUT.
Info: WRAPPING ALL CLUSTERS AROUND PERIODIC BOUNDARIES ON OUTPUT.
Info: FIRST LDB TIMESTEP     50
Info: LAST LDB TIMESTEP     -1
Info: HOM BACKGROUND SCALING 1
Info: PME BACKGROUND SCALING 1
Info: MIN ATOMS PER PATCH    40
Info: INITIAL TEMPERATURE    0
Info: CENTER OF MASS MOVING INITIALLY? NO
Info: DIELECTRIC             1
Info: EXCLUDE                SCALED ONE-FOUR
Info: 1-4 ELECTROSTATICS SCALED BY 0.833333
Info: MODIFIED 1-4 VDW PARAMETERS WILL BE USED
Info: NO DCD TRAJECTORY OUTPUT
Info: NO EXTENDED SYSTEM TRAJECTORY OUTPUT
Info: NO VELOCITY DCD OUTPUT
Info: NO FORCE DCD OUTPUT
Info: OUTPUT FILENAME        ../replicas/rep40/equilibration/eq0
Info: NO RESTART FILE
Info: SWITCHING ACTIVE
Info: SWITCHING ON           10
Info: SWITCHING OFF          12
Info: PAIRLIST DISTANCE      13.5
Info: PAIRLIST SHRINK RATE   0.01
Info: PAIRLIST GROW RATE     0.01
Info: PAIRLIST TRIGGER       0.3
Info: PAIRLISTS PER CYCLE    2
Info: PAIRLISTS ENABLED
Info: MARGIN                 0
Info: HYDROGEN GROUP CUTOFF  2.5
Info: PATCH DIMENSION        16
Info: ENERGY OUTPUT STEPS    500
Info: CROSSTERM ENERGY INCLUDED IN DIHEDRAL
Info: TIMING OUTPUT STEPS    5000
Info: PRESSURE OUTPUT STEPS  500
Info: HARMONIC CONSTRAINTS ACTIVE
Info: HARMONIC CONS EXP      2
Info: HARMONIC CONS SCALING  10
Info: CONJUGATE GRADIENT MINIMIZATION ACTIVE
Info: LINE MINIMIZATION GOAL = 0.001
Info: BABY STEP SIZE = 0.01
Info: TINY STEP SIZE = 1e-06
Info: PARTICLE MESH EWALD (PME) ACTIVE
Info: PME TOLERANCE               1e-06
Info: PME EWALD COEFFICIENT       0.257952
Info: PME INTERPOLATION ORDER     4
Info: PME GRID DIMENSIONS         80 96 80
Info: PME MAXIMUM GRID SPACING    1
Info: FULL ELECTROSTATIC EVALUATION FREQUENCY      2
Info: USING VERLET I (r-RESPA) MTS SCHEME.
Info: C1 SPLITTING OF LONG RANGE ELECTROSTATICS
Info: PLACING ATOMS IN PATCHES BY HYDROGEN GROUPS
Info: RIGID BONDS TO HYDROGEN : ALL
Info:         ERROR TOLERANCE : 1e-05
Info:          MAX ITERATIONS : 100
Info: RIGID WATER USING SETTLE ALGORITHM
Info: RANDOM NUMBER SEED     1503691734
Info: USE HYDROGEN BONDS?    NO
Info: Using AMBER format force field!
Info: AMBER PARM FILE        ../build/complex.top
Info: COORDINATE PDB         ../build/complex.pdb
Info: Exclusions in PARM file will be ignored!
Info: SCNB (VDW SCALING)     2
Info: USING ARITHMETIC MEAN TO COMBINE L-J SIGMA PARAMETERS
Info: SUMMARY OF PARAMETERS:
Info: 71 BONDS
Info: 145 ANGLES
Info: 76 DIHEDRAL
Info: 0 IMPROPER
Info: 0 CROSSTERM
Info: 0 VDW
Info: 190 VDW_PAIRS
Info: 0 NBTHOLE_PAIRS
Info: STRUCTURE SUMMARY:
Info: 49394 ATOMS
Info: 49448 BONDS
Info: 8698 ANGLES
Info: 18780 DIHEDRALS
Info: 0 IMPROPERS
Info: 0 CROSSTERMS
Info: 0 EXCLUSIONS
Info: 2336 CONSTRAINTS
Info: 47058 RIGID BONDS
Info: 101124 DEGREES OF FREEDOM
Info: 17225 HYDROGEN GROUPS
Info: 4 ATOMS IN LARGEST HYDROGEN GROUP
Info: 17225 MIGRATION GROUPS
Info: 4 ATOMS IN LARGEST MIGRATION GROUP
Info: TOTAL MASS = 301478 amu
Info: TOTAL CHARGE = 1.00115e-05 e
Info: MASS DENSITY = 0.935846 g/cm^3
Info: ATOM DENSITY = 0.0923345 atoms/A^3
Info: ADDED 70656 IMPLICIT EXCLUSIONS
Info: NONBONDED TABLE R-SQUARED SPACING: 0.0625
Info: NONBONDED TABLE SIZE: 769 POINTS
Info: REMOVING COM VELOCITY 0 0 0
TCL: Minimizing for 100 steps
ETITLE: TS BOND ANGLE DIHED IMPRP ELECT VDW BOUNDARY MISC KINETIC TOTAL TEMP POTENTIAL TOTAL3 TEMPAVG PRESSURE GPRESSURE VOLUME PRESSAVG GPRESSAVG
ENERGY: 0 155.4176 1012.2698 2855.7272 0.0000 -154496.7912 207729.2052 0.0468 0.0000 0.0000 57255.8754 0.0000 57255.8754 57255.8754 0.0000 116350.2532 86546.1670 534946.2959 116350.2532 86546.1670
ENERGY: 20 304.7544 935.7911 2893.4663 0.0000 -158672.9399 17936.6597 143.9454 0.0000 0.0000 -136458.3231 0.0000 -136458.3231 -136458.3231 0.0000 16523.9390 -239.4555 534946.2959 16523.9390 -239.4555
ENERGY: 40 198.7421 799.5724 2896.9273 0.0000 -162811.4534 16417.9536 221.3029 0.0000 0.0000 -142276.9551 0.0000 -142276.9551 -142276.9551 0.0000 15011.2703 -2135.4698 534946.2959 15011.2703 -2135.4698
ENERGY: 60 130.5285 715.3440 2898.2165 0.0000 -167496.1544 15446.7543 315.2796 0.0000 0.0000 -147990.0315 0.0000 -147990.0315 -147990.0315 0.0000 13793.8843 -3799.3978 534946.2959 13793.8843 -3799.3978
ENERGY: 80 431.2756 765.6311 2904.3784 0.0000 -169937.5272 15121.1526 372.0122 0.0000 0.0000 -150343.0773 0.0000 -150343.0773 -150343.0773 0.0000 13270.3316 -4577.2443 534946.2959 13270.3316 -4577.2443
ENERGY: 100 129.7148 708.0653 2904.2779 0.0000 -171050.0662 15018.6534 384.1999 0.0000 0.0000 -151905.1549 0.0000 -151905.1549 -151905.1549 0.0000 13092.9128 -4843.6319 534946.2959 13092.9128 -4843.6319
TCL: Setting parameter constraintScaling to 5.0
TCL: Minimizing for 100 steps
ETITLE: TS BOND ANGLE DIHED IMPRP ELECT VDW BOUNDARY MISC KINETIC TOTAL TEMP POTENTIAL TOTAL3 TEMPAVG PRESSURE GPRESSURE VOLUME PRESSAVG GPRESSAVG
ENERGY: 100 129.7148 708.0653 2904.2779 0.0000 -171050.0662 15018.6534 192.0999 0.0000 0.0000 -152097.2549 0.0000 -152097.2549 -152097.2549 0.0000 13703.5080 -22944.4546 534946.2959 13703.5080 -22944.4546
ENERGY: 120 118.6824 680.2877 2909.9066 0.0000 -172396.3158 14830.1205 259.9550 0.0000 0.0000 -153597.3637 0.0000 -153597.3637 -153597.3637 0.0000 13320.9469 -4756.3078 534946.2959 13320.9469 -4756.3078
ENERGY: 140 109.1494 671.1473 2912.0863 0.0000 -174830.2563 14716.1440 337.7305 0.0000 0.0000 -156083.9988 0.0000 -156083.9988 -156083.9988 0.0000 12908.9591 -5423.1459 534946.2959 12908.9591 -5423.1459
ENERGY: 160 125.8519 667.1490 2914.1927 0.0000 -175967.0389 14735.1338 362.9185 0.0000 0.0000 -157161.7930 0.0000 -157161.7930 -157161.7930 0.0000 12806.8979 -5644.2444 534946.2959 12806.8979 -5644.2444
ENERGY: 180 303.5263 659.6785 2917.2963 0.0000 -177408.6370 14815.0091 395.3811 0.0000 0.0000 -158317.7456 0.0000 -158317.7456 -158317.7456 0.0000 12699.3183 -5901.3542 534946.2959 12699.3183 -5901.3542
ENERGY: 200 109.2139 628.4871 2923.3603 0.0000 -179544.3997 15071.2483 441.8974 0.0000 0.0000 -160370.1927 0.0000 -160370.1927 -160370.1927 0.0000 12659.9893 -6162.3459 534946.2959 12659.9893 -6162.3459
TCL: Setting parameter constraintScaling to 2.5
TCL: Minimizing for 100 steps
ETITLE: TS BOND ANGLE DIHED IMPRP ELECT VDW BOUNDARY MISC KINETIC TOTAL TEMP POTENTIAL TOTAL3 TEMPAVG PRESSURE GPRESSURE VOLUME PRESSAVG GPRESSAVG
ENERGY: 200 109.2139 628.4871 2923.3603 0.0000 -179544.3997 15071.2483 220.9487 0.0000 0.0000 -160591.1414 0.0000 -160591.1414 -160591.1414 0.0000 13208.4240 -25281.5408 534946.2959 13208.4240 -25281.5408
ENERGY: 220 278.8194 653.9745 2925.3483 0.0000 -180409.8231 15110.0343 289.1332 0.0000 0.0000 -161152.5133 0.0000 -161152.5133 -161152.5133 0.0000 12996.9495 -5926.5071 534946.2959 12996.9495 -5926.5071
ENERGY: 240 252.2260 639.2711 2923.2907 0.0000 -181408.2675 15262.7177 324.5863 0.0000 0.0000 -162006.1757 0.0000 -162006.1757 -162006.1757 0.0000 12954.7456 -6067.0158 534946.2959 12954.7456 -6067.0158
ENERGY: 260 307.0053 658.2772 2922.9509 0.0000 -183634.6731 15759.2025 410.8802 0.0000 0.0000 -163576.3569 0.0000 -163576.3569 -163576.3569 0.0000 12990.6836 -6282.7174 534946.2959 12990.6836 -6282.7174
ENERGY: 280 148.2334 671.6132 2920.5309 0.0000 -184545.2039 16021.0754 428.8910 0.0000 0.0000 -164354.8601 0.0000 -164354.8601 -164354.8601 0.0000 13098.3161 -6286.9556 534946.2959 13098.3161 -6286.9556
ENERGY: 300 262.3450 716.9810 2926.3511 0.0000 -185866.2904 16436.4025 428.3660 0.0000 0.0000 -165095.8448 0.0000 -165095.8448 -165095.8448 0.0000 13262.6905 -6256.3135 534946.2959 13262.6905 -6256.3135
TCL: Setting parameter constraintScaling to 1.25
TCL: Minimizing for 100 steps
ETITLE: TS BOND ANGLE DIHED IMPRP ELECT VDW BOUNDARY MISC KINETIC TOTAL TEMP POTENTIAL TOTAL3 TEMPAVG PRESSURE GPRESSURE VOLUME PRESSAVG GPRESSAVG
ENERGY: 300 262.3450 716.9810 2926.3511 0.0000 -185866.2904 16436.4025 214.1830 0.0000 0.0000 -165310.0278 0.0000 -165310.0278 -165310.0278 0.0000 13676.7178 -26274.6787 534946.2959 13676.7178 -26274.6787
ENERGY: 320 168.6440 673.3527 2914.0986 0.0000 -186347.1241 16531.9099 248.7186 0.0000 0.0000 -165810.4002 0.0000 -165810.4002 -165810.4002 0.0000 13670.6816 -5908.0043 534946.2959 13670.6816 -5908.0043
ENERGY: 340 151.0177 648.4380 2912.1788 0.0000 -186949.5194 16686.8137 285.1959 0.0000 0.0000 -166265.8753 0.0000 -166265.8753 -166265.8753 0.0000 13648.4784 -5991.4567 534946.2959 13648.4784 -5991.4567
ENERGY: 360 668.8493 796.4482 2908.2487 0.0000 -189339.3247 17479.5156 409.2383 0.0000 0.0000 -167077.0246 0.0000 -167077.0246 -167077.0246 0.0000 13793.2457 -6144.0277 534946.2959 13793.2457 -6144.0277
ENERGY: 380 147.1461 645.3067 2902.9776 0.0000 -189024.9071 17354.5749 375.4181 0.0000 0.0000 -167599.4836 0.0000 -167599.4836 -167599.4836 0.0000 13812.3004 -6059.4969 534946.2959 13812.3004 -6059.4969
ENERGY: 400 165.9411 645.4419 2901.1133 0.0000 -190005.4753 17724.8708 360.3003 0.0000 0.0000 -168207.8079 0.0000 -168207.8079 -168207.8079 0.0000 14057.9788 -5948.2245 534946.2959 14057.9788 -5948.2245
TCL: Setting parameter constraintScaling to 0.625
TCL: Minimizing for 100 steps
ETITLE: TS BOND ANGLE DIHED IMPRP ELECT VDW BOUNDARY MISC KINETIC TOTAL TEMP POTENTIAL TOTAL3 TEMPAVG PRESSURE GPRESSURE VOLUME PRESSAVG GPRESSAVG
ENERGY: 400 165.9411 645.4419 2901.1133 0.0000 -190005.4753 17724.8708 180.1501 0.0000 0.0000 -168387.9580 0.0000 -168387.9580 -168387.9580 0.0000 14344.3502 -26591.5485 534946.2959 14344.3502 -26591.5485
ENERGY: 420 376.7158 671.7505 2896.3951 0.0000 -190447.3783 17846.9468 205.6750 0.0000 0.0000 -168449.8952 0.0000 -168449.8952 -168449.8952 0.0000 14279.2527 -5762.9794 534946.2959 14279.2527 -5762.9794
ENERGY: 440 281.2408 695.4204 2896.3036 0.0000 -191563.9937 18226.1054 252.4598 0.0000 0.0000 -169212.4638 0.0000 -169212.4638 -169212.4638 0.0000 14291.1960 -5837.4166 534946.2959 14291.1960 -5837.4166
ENERGY: 460 157.8600 663.2697 2885.9153 0.0000 -192141.2316 18433.4557 267.5453 0.0000 0.0000 -169733.1856 0.0000 -169733.1856 -169733.1856 0.0000 14490.7241 -5740.7386 534946.2959 14490.7241 -5740.7386
ENERGY: 480 206.2150 639.5694 2891.3658 0.0000 -193195.5688 18860.1485 283.2204 0.0000 0.0000 -170315.0496 0.0000 -170315.0496 -170315.0496 0.0000 14607.4235 -5705.2064 534946.2959 14607.4235 -5705.2064
ENERGY: 500 156.8023 634.6214 2881.1872 0.0000 -194731.7648 19523.0715 315.9484 0.0000 0.0000 -171220.1340 0.0000 -171220.1340 -171220.1340 0.0000 14935.6431 -5557.3544 534946.2959 14935.6431 -5557.3544
TCL: Setting parameter constraintScaling to 0.3125
TCL: Minimizing for 100 steps
ETITLE: TS BOND ANGLE DIHED IMPRP ELECT VDW BOUNDARY MISC KINETIC TOTAL TEMP POTENTIAL TOTAL3 TEMPAVG PRESSURE GPRESSURE VOLUME PRESSAVG GPRESSAVG
ENERGY: 500 156.8023 634.6214 2881.1872 0.0000 -194731.7648 19523.0715 157.9742 0.0000 0.0000 -171378.1082 0.0000 -171378.1082 -171378.1082 0.0000 15137.1697 -26912.1819 534946.2959 15137.1697 -26912.1819
ENERGY: 520 179.1417 646.1254 2879.0816 0.0000 -195159.8634 19637.6793 180.5942 0.0000 0.0000 -171637.2412 0.0000 -171637.2412 -171637.2412 0.0000 15090.8063 -5439.0767 534946.2959 15090.8063 -5439.0767
ENERGY: 540 185.5626 679.6214 2870.9385 0.0000 -196094.3315 19958.0719 209.2383 0.0000 0.0000 -172190.8989 0.0000 -172190.8989 -172190.8989 0.0000 15312.1842 -5371.5233 534946.2959 15312.1842 -5371.5233
ENERGY: 560 165.1163 659.3401 2868.7117 0.0000 -196524.7509 20112.4586 216.2334 0.0000 0.0000 -172502.8908 0.0000 -172502.8908 -172502.8908 0.0000 15351.2808 -5366.9637 534946.2959 15351.2808 -5366.9637
ENERGY: 580 232.7629 705.3414 2902.8624 0.0000 -197821.8910 20727.8002 208.9077 0.0000 0.0000 -173044.2164 0.0000 -173044.2164 -173044.2164 0.0000 15796.9100 -5095.4779 534946.2959 15796.9100 -5095.4779
ENERGY: 600 152.3431 644.3196 2873.8542 0.0000 -197823.6108 20658.8137 214.9523 0.0000 0.0000 -173279.3279 0.0000 -173279.3279 -173279.3279 0.0000 15687.5192 -5182.1679 534946.2959 15687.5192 -5182.1679
TCL: Setting parameter constraintScaling to 0.15625
TCL: Minimizing for 100 steps
ETITLE: TS BOND ANGLE DIHED IMPRP ELECT VDW BOUNDARY MISC KINETIC TOTAL TEMP POTENTIAL TOTAL3 TEMPAVG PRESSURE GPRESSURE VOLUME PRESSAVG GPRESSAVG
ENERGY: 600 152.3431 644.3196 2873.8542 0.0000 -197823.6108 20658.8137 107.4761 0.0000 0.0000 -173386.8040 0.0000 -173386.8040 -173386.8040 0.0000 15810.8514 -26975.0067 534946.2959 15810.8514 -26975.0067
ENERGY: 620 152.2430 638.1869 2862.1319 0.0000 -198064.5956 20705.9032 117.2466 0.0000 0.0000 -173588.8839 0.0000 -173588.8839 -173588.8839 0.0000 15772.4872 -5127.7437 534946.2959 15772.4872 -5127.7437
ENERGY: 640 182.5518 677.5730 2860.0958 0.0000 -198767.5708 20950.2253 139.1506 0.0000 0.0000 -173957.9744 0.0000 -173957.9744 -173957.9744 0.0000 15809.6802 -5161.7378 534946.2959 15809.6802 -5161.7378
ENERGY: 660 264.9135 736.5989 2861.3803 0.0000 -199364.6949 21164.6251 144.8698 0.0000 0.0000 -174192.3073 0.0000 -174192.3073 -174192.3073 0.0000 15916.2985 -5132.8022 534946.2959 15916.2985 -5132.8022
ENERGY: 680 166.5252 646.8181 2847.1372 0.0000 -199649.2998 21279.9032 142.9963 0.0000 0.0000 -174565.9199 0.0000 -174565.9199 -174565.9199 0.0000 16013.7682 -5067.9737 534946.2959 16013.7682 -5067.9737
ENERGY: 700 159.9863 640.5252 2847.7969 0.0000 -200230.1545 21510.5218 145.3475 0.0000 0.0000 -174925.9768 0.0000 -174925.9768 -174925.9768 0.0000 16177.4108 -4982.9940 534946.2959 16177.4108 -4982.9940
TCL: Setting parameter constraintScaling to 0.078125
TCL: Minimizing for 100 steps
ETITLE: TS BOND ANGLE DIHED IMPRP ELECT VDW BOUNDARY MISC KINETIC TOTAL TEMP POTENTIAL TOTAL3 TEMPAVG PRESSURE GPRESSURE VOLUME PRESSAVG GPRESSAVG
ENERGY: 700 159.9863 640.5252 2847.7969 0.0000 -200230.1545 21510.5218 72.6738 0.0000 0.0000 -174998.6506 0.0000 -174998.6506 -174998.6506 0.0000 16250.3075 -27108.8598 534946.2959 16250.3075 -27108.8598
ENERGY: 720 162.4494 648.5618 2840.2083 0.0000 -200509.6606 21585.7902 79.0797 0.0000 0.0000 -175193.5712 0.0000 -175193.5712 -175193.5712 0.0000 16219.9874 -4967.0370 534946.2959 16219.9874 -4967.0370
ENERGY: 740 182.2367 660.7768 2837.8102 0.0000 -200880.9643 21720.3761 83.1300 0.0000 0.0000 -175396.6344 0.0000 -175396.6344 -175396.6344 0.0000 16270.0479 -4952.5225 534946.2959 16270.0479 -4952.5225
ENERGY: 760 160.1119 653.6199 2833.4851 0.0000 -201483.6736 21956.7874 90.1913 0.0000 0.0000 -175789.4779 0.0000 -175789.4779 -175789.4779 0.0000 16396.3319 -4899.7143 534946.2959 16396.3319 -4899.7143
ENERGY: 780 308.1668 699.5588 2832.9014 0.0000 -201917.8993 22127.7464 90.9632 0.0000 0.0000 -175858.5628 0.0000 -175858.5628 -175858.5628 0.0000 16543.5553 -4835.2542 534946.2959 16543.5553 -4835.2542
ENERGY: 800 165.8369 664.6896 2835.0125 0.0000 -202717.0192 22459.7647 97.0780 0.0000 0.0000 -176494.6375 0.0000 -176494.6375 -176494.6375 0.0000 16645.8189 -4793.9682 534946.2959 16645.8189 -4793.9682
TCL: Setting parameter constraintScaling to 0.0390625
TCL: Minimizing for 100 steps
ETITLE: TS BOND ANGLE DIHED IMPRP ELECT VDW BOUNDARY MISC KINETIC TOTAL TEMP POTENTIAL TOTAL3 TEMPAVG PRESSURE GPRESSURE VOLUME PRESSAVG GPRESSAVG
ENERGY: 800 165.8369 664.6896 2835.0125 0.0000 -202717.0192 22459.7647 48.5390 0.0000 0.0000 -176543.1765 0.0000 -176543.1765 -176543.1765 0.0000 16688.8563 -27263.9091 534946.2959 16688.8563 -27263.9091
ENERGY: 820 162.5639 649.3115 2824.0249 0.0000 -202852.1872 22513.7721 49.5390 0.0000 0.0000 -176652.9758 0.0000 -176652.9758 -176652.9758 0.0000 16731.1186 -4731.2638 534946.2959 16731.1186 -4731.2638
ENERGY: 840 166.7289 648.8301 2823.1443 0.0000 -203086.1320 22606.1172 51.6841 0.0000 0.0000 -176789.6274 0.0000 -176789.6274 -176789.6274 0.0000 16760.6067 -4727.0987 534946.2959 16760.6067 -4727.0987
ENERGY: 860 162.2429 651.6253 2822.0187 0.0000 -203325.7327 22701.5249 53.1144 0.0000 0.0000 -176935.2066 0.0000 -176935.2066 -176935.2066 0.0000 16799.5233 -4711.6072 534946.2959 16799.5233 -4711.6072
ENERGY: 880 174.6443 649.3734 2819.5779 0.0000 -203957.7670 22974.2385 55.6427 0.0000 0.0000 -177284.2902 0.0000 -177284.2902 -177284.2902 0.0000 16937.7846 -4651.7869 534946.2959 16937.7846 -4651.7869
ENERGY: 900 169.6782 670.0044 2818.2362 0.0000 -204678.3308 23300.3850 59.3932 0.0000 0.0000 -177660.6337 0.0000 -177660.6337 -177660.6337 0.0000 17151.0848 -4533.5505 534946.2959 17151.0848 -4533.5505
TCL: Setting parameter constraintScaling to 0.01953125
TCL: Minimizing for 100 steps
ETITLE: TS BOND ANGLE DIHED IMPRP ELECT VDW BOUNDARY MISC KINETIC TOTAL TEMP POTENTIAL TOTAL3 TEMPAVG PRESSURE GPRESSURE VOLUME PRESSAVG GPRESSAVG
ENERGY: 900 169.6782 670.0044 2818.2362 0.0000 -204678.3308 23300.3850 29.6966 0.0000 0.0000 -177690.3303 0.0000 -177690.3303 -177690.3303 0.0000 17175.5543 -27244.6239 534946.2959 17175.5543 -27244.6239
ENERGY: 920 166.9855 674.0380 2813.6853 0.0000 -204862.8502 23382.4043 30.7164 0.0000 0.0000 -177795.0207 0.0000 -177795.0207 -177795.0207 0.0000 17210.7617 -4497.8543 534946.2959 17210.7617 -4497.8543
ENERGY: 940 169.3198 655.1357 2813.2963 0.0000 -205115.7244 23484.8673 31.6049 0.0000 0.0000 -177961.5003 0.0000 -177961.5003 -177961.5003 0.0000 17226.0057 -4496.4053 534946.2959 17226.0057 -4496.4053
ENERGY: 960 166.6026 651.9174 2810.4700 0.0000 -205345.6595 23584.4683 32.3616 0.0000 0.0000 -178099.8396 0.0000 -178099.8396 -178099.8396 0.0000 17258.6442 -4484.0646 534946.2959 17258.6442 -4484.0646
ENERGY: 980 170.0505 652.8011 2809.7657 0.0000 -205694.6828 23732.2761 33.2774 0.0000 0.0000 -178296.5119 0.0000 -178296.5119 -178296.5119 0.0000 17353.2012 -4439.0727 534946.2959 17353.2012 -4439.0727
ENERGY: 1000 181.8770 664.8130 2807.3614 0.0000 -206576.9403 24146.9094 36.5566 0.0000 0.0000 -178739.4229 0.0000 -178739.4229 -178739.4229 0.0000 17557.5522 -4331.6166 534946.2959 17557.5522 -4331.6166
TCL: Setting parameter constraintScaling to 0
TCL: Minimizing for 5000 steps
ETITLE: TS BOND ANGLE DIHED IMPRP ELECT VDW BOUNDARY MISC KINETIC TOTAL TEMP POTENTIAL TOTAL3 TEMPAVG PRESSURE GPRESSURE VOLUME PRESSAVG GPRESSAVG
ENERGY: 1000 181.8770 664.8130 2807.3614 0.0000 -206576.9403 24146.9094 0.0000 0.0000 0.0000 -178775.9795 0.0000 -178775.9795 -178775.9795 0.0000 17585.4501 -27278.9301 534946.2959 17585.4501 -27278.9301
ENERGY: 2000 186.1199 665.7555 2804.3198 0.0000 -215133.7912 27933.1866 0.0000 0.0000 0.0000 -183544.4094 0.0000 -183544.4094 -183544.4094 0.0000 19596.2389 -3253.3522 534946.2959 19596.2389 -3253.3522
ENERGY: 3000 166.2335 667.1664 2795.1242 0.0000 -217716.0424 28972.2847 0.0000 0.0000 0.0000 -185115.2337 0.0000 -185115.2337 -185115.2337 0.0000 20162.9492 -2926.1302 534946.2959 20162.9492 -2926.1302
ENERGY: 4000 164.9330 664.8017 2788.2866 0.0000 -218914.3345 29457.6748 0.0000 0.0000 0.0000 -185838.6384 0.0000 -185838.6384 -185838.6384 0.0000 20421.2810 -2796.9269 534946.2959 20421.2810 -2796.9269
ENERGY: 5000 165.4559 665.3557 2784.1272 0.0000 -219516.7187 29693.4794 0.0000 0.0000 0.0000 -186208.3006 0.0000 -186208.3006 -186208.3006 0.0000 20536.4163 -2734.8692 534946.2959 20536.4163 -2734.8692
ENERGY: 6000 165.7171 666.6968 2779.7525 0.0000 -219937.8977 29865.9860 0.0000 0.0000 0.0000 -186459.7453 0.0000 -186459.7453 -186459.7453 0.0000 20631.3840 -2681.8755 534946.2959 20631.3840 -2681.8755
