Info: SIMULATION PARAMETERS:
Info: TIMESTEP               2
Info: NUMBER OF STEPS        0
Info: STEPS PER CYCLE        10
Info: PERIODIC CELL BASIS 1  72.449 0 0
Info: PERIODIC CELL BASIS 2  0 93.247 0
Info: PERIODIC CELL BASIS 3  0 0 79.185
Info: PERIODIC CELL CENTER   -0.248 -0.156 -0.047
Info: WRAPPING WATERS AROUND PERIODIC BOUNDARIES ON OUTPUT.
Info: WRAPPING ALL CLUSTERS AROUND PERIODIC BOUNDARIES ON OUTPUT.
Info: FIRST LDB TIMESTEP     50
Info: LAST LDB TIMESTEP     -1
Info: HOM BACKGROUND SCALING 1
Info: PME BACKGROUND SCALING 1
Info: MIN ATOMS PER PATCH    40
Info: INITIAL TEMPERATURE    0
Info: CENTER OF MASS MOVING INITIALLY? NO
Info: DIELECTRIC             1
Info: EXCLUDE                SCALED ONE-FOUR
Info: 1-4 ELECTROSTATICS SCALED BY 0.833333
Info: MODIFIED 1-4 VDW PARAMETERS WILL BE USED
Info: NO DCD TRAJECTORY OUTPUT
Info: NO EXTENDED SYSTEM TRAJECTORY OUTPUT
Info: NO VELOCITY DCD OUTPUT
Info: NO FORCE DCD OUTPUT
Info: OUTPUT FILENAME        ../replicas/rep77/equilibration/eq0
Info: NO RESTART FILE
Info: SWITCHING ACTIVE
Info: SWITCHING ON           10
Info: SWITCHING OFF          12
Info: PAIRLIST DISTANCE      13.5
Info: PAIRLIST SHRINK RATE   0.01
Info: PAIRLIST GROW RATE     0.01
Info: PAIRLIST TRIGGER       0.3
Info: PAIRLISTS PER CYCLE    2
Info: PAIRLISTS ENABLED
Info: MARGIN                 0
Info: HYDROGEN GROUP CUTOFF  2.5
Info: PATCH DIMENSION        16
Info: ENERGY OUTPUT STEPS    500
Info: CROSSTERM ENERGY INCLUDED IN DIHEDRAL
Info: TIMING OUTPUT STEPS    5000
Info: PRESSURE OUTPUT STEPS  500
Info: HARMONIC CONSTRAINTS ACTIVE
Info: HARMONIC CONS EXP      2
Info: HARMONIC CONS SCALING  10
Info: CONJUGATE GRADIENT MINIMIZATION ACTIVE
Info: LINE MINIMIZATION GOAL = 0.001
Info: BABY STEP SIZE = 0.01
Info: TINY STEP SIZE = 1e-06
Info: PARTICLE MESH EWALD (PME) ACTIVE
Info: PME TOLERANCE               1e-06
Info: PME EWALD COEFFICIENT       0.257952
Info: PME INTERPOLATION ORDER     4
Info: PME GRID DIMENSIONS         80 96 80
Info: PME MAXIMUM GRID SPACING    1
Info: FULL ELECTROSTATIC EVALUATION FREQUENCY      2
Info: USING VERLET I (r-RESPA) MTS SCHEME.
Info: C1 SPLITTING OF LONG RANGE ELECTROSTATICS
Info: PLACING ATOMS IN PATCHES BY HYDROGEN GROUPS
Info: RIGID BONDS TO HYDROGEN : ALL
Info:         ERROR TOLERANCE : 1e-05
Info:          MAX ITERATIONS : 100
Info: RIGID WATER USING SETTLE ALGORITHM
Info: RANDOM NUMBER SEED     1503691734
Info: USE HYDROGEN BONDS?    NO
Info: Using AMBER format force field!
Info: AMBER PARM FILE        ../build/complex.top
Info: COORDINATE PDB         ../build/complex.pdb
Info: Exclusions in PARM file will be ignored!
Info: SCNB (VDW SCALING)     2
Info: USING ARITHMETIC MEAN TO COMBINE L-J SIGMA PARAMETERS
Info: SUMMARY OF PARAMETERS:
Info: 71 BONDS
Info: 145 ANGLES
Info: 76 DIHEDRAL
Info: 0 IMPROPER
Info: 0 CROSSTERM
Info: 0 VDW
Info: 190 VDW_PAIRS
Info: 0 NBTHOLE_PAIRS
Info: STRUCTURE SUMMARY:
Info: 49394 ATOMS
Info: 49448 BONDS
Info: 8698 ANGLES
Info: 18780 DIHEDRALS
Info: 0 IMPROPERS
Info: 0 CROSSTERMS
Info: 0 EXCLUSIONS
Info: 2336 CONSTRAINTS
Info: 47058 RIGID BONDS
Info: 101124 DEGREES OF FREEDOM
Info: 17225 HYDROGEN GROUPS
Info: 4 ATOMS IN LARGEST HYDROGEN GROUP
Info: 17225 MIGRATION GROUPS
Info: 4 ATOMS IN LARGEST MIGRATION GROUP
Info: TOTAL MASS = 301478 amu
Info: TOTAL CHARGE = 1.00115e-05 e
Info: MASS DENSITY = 0.935846 g/cm^3
Info: ATOM DENSITY = 0.0923345 atoms/A^3
Info: ADDED 70656 IMPLICIT EXCLUSIONS
Info: NONBONDED TABLE R-SQUARED SPACING: 0.0625
Info: NONBONDED TABLE SIZE: 769 POINTS
Info: REMOVING COM VELOCITY 0 0 0
TCL: Minimizing for 100 steps
ETITLE: TS BOND ANGLE DIHED IMPRP ELECT VDW BOUNDARY MISC KINETIC TOTAL TEMP POTENTIAL TOTAL3 TEMPAVG PRESSURE GPRESSURE VOLUME PRESSAVG GPRESSAVG
ENERGY: 0 155.4176 1012.2698 2855.7272 0.0000 -154496.7913 207729.2052 0.0468 0.0000 0.0000 57255.8753 0.0000 57255.8753 57255.8753 0.0000 116350.2532 86546.1670 534946.2959 116350.2532 86546.1670
ENERGY: 20 304.7545 935.7911 2893.4663 0.0000 -158672.9402 17936.6596 143.9454 0.0000 0.0000 -136458.3233 0.0000 -136458.3233 -136458.3233 0.0000 16523.9389 -239.4556 534946.2959 16523.9389 -239.4556
ENERGY: 40 198.7422 799.5724 2896.9273 0.0000 -162811.4534 16417.9536 221.3029 0.0000 0.0000 -142276.9550 0.0000 -142276.9550 -142276.9550 0.0000 15011.2703 -2135.4698 534946.2959 15011.2703 -2135.4698
ENERGY: 60 130.5285 715.3440 2898.2166 0.0000 -167496.1546 15446.7543 315.2796 0.0000 0.0000 -147990.0316 0.0000 -147990.0316 -147990.0316 0.0000 13793.8843 -3799.3978 534946.2959 13793.8843 -3799.3978
ENERGY: 80 431.2740 765.6310 2904.3783 0.0000 -169937.5175 15121.1538 372.0120 0.0000 0.0000 -150343.0684 0.0000 -150343.0684 -150343.0684 0.0000 13270.3337 -4577.2410 534946.2959 13270.3337 -4577.2410
ENERGY: 100 119.3893 710.0605 2905.2589 0.0000 -171259.7173 14991.7863 387.3613 0.0000 0.0000 -152145.8611 0.0000 -152145.8611 -152145.8611 0.0000 13056.2646 -4908.1741 534946.2959 13056.2646 -4908.1741
TCL: Setting parameter constraintScaling to 5.0
TCL: Minimizing for 100 steps
ETITLE: TS BOND ANGLE DIHED IMPRP ELECT VDW BOUNDARY MISC KINETIC TOTAL TEMP POTENTIAL TOTAL3 TEMPAVG PRESSURE GPRESSURE VOLUME PRESSAVG GPRESSAVG
ENERGY: 100 119.3893 710.0605 2905.2589 0.0000 -171259.7173 14991.7863 193.6806 0.0000 0.0000 -152339.5417 0.0000 -152339.5417 -152339.5417 0.0000 13672.7708 -23021.8202 534946.2959 13672.7708 -23021.8202
ENERGY: 120 166.4521 692.2082 2910.8260 0.0000 -172914.7740 14833.3509 281.9274 0.0000 0.0000 -154030.0094 0.0000 -154030.0094 -154030.0094 0.0000 13225.2902 -4913.0036 534946.2959 13225.2902 -4913.0036
ENERGY: 140 225.1323 696.9098 2912.9607 0.0000 -174149.5176 14732.6719 321.1862 0.0000 0.0000 -155260.6568 0.0000 -155260.6568 -155260.6568 0.0000 12997.6250 -5265.6610 534946.2959 12997.6250 -5265.6610
ENERGY: 160 270.2739 684.1637 2923.2925 0.0000 -176284.8846 14758.1247 383.2691 0.0000 0.0000 -157265.7607 0.0000 -157265.7607 -157265.7607 0.0000 12739.5029 -5745.5822 534946.2959 12739.5029 -5745.5822
ENERGY: 180 172.6853 724.9576 2929.2187 0.0000 -179192.8887 15054.2175 478.3498 0.0000 0.0000 -159833.4597 0.0000 -159833.4597 -159833.4597 0.0000 12525.3723 -6233.7809 534946.2959 12525.3723 -6233.7809
ENERGY: 200 239.7234 694.1034 2941.4029 0.0000 -181558.3905 15587.5022 546.3331 0.0000 0.0000 -161549.3255 0.0000 -161549.3255 -161549.3255 0.0000 12582.6787 -6430.4994 534946.2959 12582.6787 -6430.4994
TCL: Setting parameter constraintScaling to 2.5
TCL: Minimizing for 100 steps
ETITLE: TS BOND ANGLE DIHED IMPRP ELECT VDW BOUNDARY MISC KINETIC TOTAL TEMP POTENTIAL TOTAL3 TEMPAVG PRESSURE GPRESSURE VOLUME PRESSAVG GPRESSAVG
ENERGY: 200 239.7234 694.1034 2941.4029 0.0000 -181558.3905 15587.5022 273.1665 0.0000 0.0000 -161822.4920 0.0000 -161822.4920 -161822.4920 0.0000 13229.6678 -25661.6394 534946.2959 13229.6678 -25661.6394
ENERGY: 220 245.2106 676.0705 2932.9756 0.0000 -182071.9150 15473.4898 336.6793 0.0000 0.0000 -162407.4892 0.0000 -162407.4892 -162407.4892 0.0000 12975.3214 -6091.8682 534946.2959 12975.3214 -6091.8682
ENERGY: 240 153.7115 693.9094 2928.7689 0.0000 -182681.2043 15530.1485 346.9451 0.0000 0.0000 -163027.7208 0.0000 -163027.7208 -163027.7208 0.0000 13034.0784 -6136.9829 534946.2959 13034.0784 -6136.9829
ENERGY: 260 232.6694 705.1275 2922.3897 0.0000 -183757.3881 15758.3307 380.1593 0.0000 0.0000 -163758.7115 0.0000 -163758.7115 -163758.7115 0.0000 13013.6445 -6246.7298 534946.2959 13013.6445 -6246.7298
ENERGY: 280 202.4001 704.5218 2917.5629 0.0000 -185467.9718 16243.5111 458.9077 0.0000 0.0000 -164941.0683 0.0000 -164941.0683 -164941.0683 0.0000 13140.3455 -6353.4870 534946.2959 13140.3455 -6353.4870
ENERGY: 300 118.2586 637.1285 2916.5617 0.0000 -186063.2533 16435.4895 482.4578 0.0000 0.0000 -165473.3571 0.0000 -165473.3571 -165473.3571 0.0000 13202.0786 -6349.9509 534946.2959 13202.0786 -6349.9509
TCL: Setting parameter constraintScaling to 1.25
TCL: Minimizing for 100 steps
ETITLE: TS BOND ANGLE DIHED IMPRP ELECT VDW BOUNDARY MISC KINETIC TOTAL TEMP POTENTIAL TOTAL3 TEMPAVG PRESSURE GPRESSURE VOLUME PRESSAVG GPRESSAVG
ENERGY: 300 118.2586 637.1285 2916.5617 0.0000 -186063.2533 16435.4895 241.2289 0.0000 0.0000 -165714.5860 0.0000 -165714.5860 -165714.5860 0.0000 13651.0947 -26356.6069 534946.2959 13651.0947 -26356.6069
ENERGY: 320 150.8756 628.2594 2910.8832 0.0000 -186683.2320 16584.0316 274.0687 0.0000 0.0000 -166135.1134 0.0000 -166135.1134 -166135.1134 0.0000 13630.1014 -5983.0388 534946.2959 13630.1014 -5983.0388
ENERGY: 340 130.8516 659.5821 2912.3579 0.0000 -187335.8190 16810.5106 288.7229 0.0000 0.0000 -166533.7939 0.0000 -166533.7939 -166533.7939 0.0000 13747.0010 -5950.1196 534946.2959 13747.0010 -5950.1196
ENERGY: 360 194.4767 682.5924 2912.7139 0.0000 -188063.5695 17025.6046 325.7397 0.0000 0.0000 -166922.4421 0.0000 -166922.4421 -166922.4421 0.0000 13747.9714 -6033.7420 534946.2959 13747.9714 -6033.7420
ENERGY: 380 183.3917 649.8384 2901.9446 0.0000 -188787.6785 17273.5216 346.5831 0.0000 0.0000 -167432.3990 0.0000 -167432.3990 -167432.3990 0.0000 13816.7932 -6030.2530 534946.2959 13816.7932 -6030.2530
ENERGY: 400 236.8179 686.6176 2908.1151 0.0000 -190286.3831 17852.4167 381.7215 0.0000 0.0000 -168220.6944 0.0000 -168220.6944 -168220.6944 0.0000 14050.4077 -5963.1796 534946.2959 14050.4077 -5963.1796
TCL: Setting parameter constraintScaling to 0.625
TCL: Minimizing for 100 steps
ETITLE: TS BOND ANGLE DIHED IMPRP ELECT VDW BOUNDARY MISC KINETIC TOTAL TEMP POTENTIAL TOTAL3 TEMPAVG PRESSURE GPRESSURE VOLUME PRESSAVG GPRESSAVG
ENERGY: 400 236.8179 686.6176 2908.1151 0.0000 -190286.3831 17852.4167 190.8607 0.0000 0.0000 -168411.5551 0.0000 -168411.5551 -168411.5551 0.0000 14344.3193 -26652.8383 534946.2959 14344.3193 -26652.8383
ENERGY: 420 172.1899 706.1671 2898.1554 0.0000 -190828.0430 17983.8470 224.1689 0.0000 0.0000 -168843.5148 0.0000 -168843.5148 -168843.5148 0.0000 14331.4072 -5759.5189 534946.2959 14331.4072 -5759.5189
ENERGY: 440 184.1380 687.8842 2892.3095 0.0000 -192179.6934 18435.8987 278.8272 0.0000 0.0000 -169700.6358 0.0000 -169700.6358 -169700.6358 0.0000 14413.1163 -5808.8759 534946.2959 14413.1163 -5808.8759
ENERGY: 460 178.4035 677.3018 2885.0614 0.0000 -192495.8531 18563.1734 277.0123 0.0000 0.0000 -169914.9008 0.0000 -169914.9008 -169914.9008 0.0000 14534.9099 -5742.6899 534946.2959 14534.9099 -5742.6899
ENERGY: 480 307.1366 755.5893 2934.5987 0.0000 -193642.8757 19132.5502 267.1673 0.0000 0.0000 -170245.8337 0.0000 -170245.8337 -170245.8337 0.0000 14825.8504 -5563.3910 534946.2959 14825.8504 -5563.3910
ENERGY: 500 181.9346 669.6070 2910.6576 0.0000 -194450.8220 19487.7124 277.3275 0.0000 0.0000 -170923.5829 0.0000 -170923.5829 -170923.5829 0.0000 15116.4079 -5384.9239 534946.2959 15116.4079 -5384.9239
TCL: Setting parameter constraintScaling to 0.3125
TCL: Minimizing for 100 steps
ETITLE: TS BOND ANGLE DIHED IMPRP ELECT VDW BOUNDARY MISC KINETIC TOTAL TEMP POTENTIAL TOTAL3 TEMPAVG PRESSURE GPRESSURE VOLUME PRESSAVG GPRESSAVG
ENERGY: 500 181.9346 669.6070 2910.6576 0.0000 -194450.8220 19487.7124 138.6637 0.0000 0.0000 -171062.2466 0.0000 -171062.2466 -171062.2466 0.0000 15306.9065 -26665.5923 534946.2959 15306.9065 -26665.5923
ENERGY: 520 213.2205 741.0576 2879.4528 0.0000 -194900.4429 19500.4781 174.6114 0.0000 0.0000 -171391.6224 0.0000 -171391.6224 -171391.6224 0.0000 15142.9891 -5421.4589 534946.2959 15142.9891 -5421.4589
ENERGY: 540 179.0159 683.8730 2879.3485 0.0000 -195202.5640 19605.8817 188.2401 0.0000 0.0000 -171666.2047 0.0000 -171666.2047 -171666.2047 0.0000 15091.8086 -5464.1971 534946.2959 15091.8086 -5464.1971
ENERGY: 560 169.2773 704.0181 2883.2114 0.0000 -195925.4392 19867.2057 215.9133 0.0000 0.0000 -172085.8132 0.0000 -172085.8132 -172085.8132 0.0000 15193.3962 -5457.8207 534946.2959 15193.3962 -5457.8207
ENERGY: 580 177.9922 679.2895 2875.5603 0.0000 -196027.7031 19885.5233 212.8745 0.0000 0.0000 -172196.4634 0.0000 -172196.4634 -172196.4634 0.0000 15215.6606 -5440.6571 534946.2959 15215.6606 -5440.6571
ENERGY: 600 172.0612 667.9943 2873.3151 0.0000 -196415.4342 20050.5876 203.5403 0.0000 0.0000 -172447.9357 0.0000 -172447.9357 -172447.9357 0.0000 15340.6913 -5365.0821 534946.2959 15340.6913 -5365.0821
TCL: Setting parameter constraintScaling to 0.15625
TCL: Minimizing for 100 steps
ETITLE: TS BOND ANGLE DIHED IMPRP ELECT VDW BOUNDARY MISC KINETIC TOTAL TEMP POTENTIAL TOTAL3 TEMPAVG PRESSURE GPRESSURE VOLUME PRESSAVG GPRESSAVG
ENERGY: 600 172.0612 667.9943 2873.3151 0.0000 -196415.4342 20050.5876 101.7702 0.0000 0.0000 -172549.7059 0.0000 -172549.7059 -172549.7059 0.0000 15457.8749 -26976.3232 534946.2959 15457.8749 -26976.3232
ENERGY: 620 197.7779 693.7657 2874.5049 0.0000 -196844.2417 20215.1566 110.9272 0.0000 0.0000 -172752.1094 0.0000 -172752.1094 -172752.1094 0.0000 15503.3510 -5257.2518 534946.2959 15503.3510 -5257.2518
ENERGY: 640 188.3009 668.9101 2863.6160 0.0000 -197498.4332 20450.3293 124.6297 0.0000 0.0000 -173202.6473 0.0000 -173202.6473 -173202.6473 0.0000 15582.8982 -5252.5956 534946.2959 15582.8982 -5252.5956
ENERGY: 660 188.3423 695.8796 2872.6917 0.0000 -197952.6528 20637.6132 121.8984 0.0000 0.0000 -173436.2276 0.0000 -173436.2276 -173436.2276 0.0000 15780.2262 -5119.3472 534946.2959 15780.2262 -5119.3472
ENERGY: 680 160.9906 696.7428 2879.8752 0.0000 -198538.8167 20887.7931 127.5105 0.0000 0.0000 -173785.9045 0.0000 -173785.9045 -173785.9045 0.0000 15854.4726 -5091.1536 534946.2959 15854.4726 -5091.1536
ENERGY: 700 180.1531 674.6601 2855.6280 0.0000 -198769.7953 20924.8090 135.8556 0.0000 0.0000 -173998.6896 0.0000 -173998.6896 -173998.6896 0.0000 15812.0454 -5163.7650 534946.2959 15812.0454 -5163.7650
TCL: Setting parameter constraintScaling to 0.078125
TCL: Minimizing for 100 steps
ETITLE: TS BOND ANGLE DIHED IMPRP ELECT VDW BOUNDARY MISC KINETIC TOTAL TEMP POTENTIAL TOTAL3 TEMPAVG PRESSURE GPRESSURE VOLUME PRESSAVG GPRESSAVG
ENERGY: 700 180.1531 674.6601 2855.6280 0.0000 -198769.7954 20924.8090 67.9278 0.0000 0.0000 -174066.6174 0.0000 -174066.6174 -174066.6174 0.0000 15881.9291 -27117.2947 534946.2959 15881.9291 -27117.2947
ENERGY: 720 173.0082 650.3319 2850.2149 0.0000 -199095.5837 21035.2934 71.9793 0.0000 0.0000 -174314.7560 0.0000 -174314.7560 -174314.7560 0.0000 15929.7012 -5077.8465 534946.2959 15929.7012 -5077.8465
ENERGY: 740 249.2263 674.0015 2843.9729 0.0000 -199537.5744 21192.4093 76.4269 0.0000 0.0000 -174501.5375 0.0000 -174501.5375 -174501.5375 0.0000 16026.4890 -5044.5478 534946.2959 16026.4890 -5044.5478
ENERGY: 760 162.7575 653.2375 2845.3720 0.0000 -199662.5249 21246.3172 77.3882 0.0000 0.0000 -174677.4526 0.0000 -174677.4526 -174677.4526 0.0000 16029.7033 -5045.0712 534946.2959 16029.7033 -5045.0712
ENERGY: 780 171.2526 667.5754 2840.8144 0.0000 -200492.3198 21549.7128 83.5699 0.0000 0.0000 -175179.3948 0.0000 -175179.3948 -175179.3948 0.0000 16203.1241 -4983.0489 534946.2959 16203.1241 -4983.0489
ENERGY: 800 168.2720 662.4343 2834.9741 0.0000 -201403.1154 21941.7747 91.4719 0.0000 0.0000 -175704.1884 0.0000 -175704.1884 -175704.1884 0.0000 16402.1067 -4888.8260 534946.2959 16402.1067 -4888.8260
TCL: Setting parameter constraintScaling to 0.0390625
TCL: Minimizing for 100 steps
ETITLE: TS BOND ANGLE DIHED IMPRP ELECT VDW BOUNDARY MISC KINETIC TOTAL TEMP POTENTIAL TOTAL3 TEMPAVG PRESSURE GPRESSURE VOLUME PRESSAVG GPRESSAVG
ENERGY: 800 168.2720 662.4343 2834.9741 0.0000 -201403.1154 21941.7747 45.7359 0.0000 0.0000 -175749.9244 0.0000 -175749.9244 -175749.9244 0.0000 16443.9516 -27190.2590 534946.2959 16443.9516 -27190.2590
ENERGY: 820 167.9850 657.5390 2833.7393 0.0000 -201548.4403 21990.9171 47.0390 0.0000 0.0000 -175851.2209 0.0000 -175851.2209 -175851.2209 0.0000 16447.7069 -4854.3579 534946.2959 16447.7069 -4854.3579
ENERGY: 840 414.5130 719.6109 2830.9883 0.0000 -202051.3149 22188.9155 50.2299 0.0000 0.0000 -175847.0573 0.0000 -175847.0573 -175847.0573 0.0000 16482.3798 -4877.7599 534946.2959 16482.3798 -4877.7599
ENERGY: 860 188.8033 671.0976 2826.2016 0.0000 -202207.6552 22240.8891 50.7975 0.0000 0.0000 -176229.8662 0.0000 -176229.8662 -176229.8662 0.0000 16561.3458 -4826.2268 534946.2959 16561.3458 -4826.2268
ENERGY: 880 166.2505 654.2727 2826.1544 0.0000 -202732.5692 22449.6413 53.1695 0.0000 0.0000 -176583.0809 0.0000 -176583.0809 -176583.0809 0.0000 16654.9437 -4783.6582 534946.2959 16654.9437 -4783.6582
ENERGY: 900 160.5361 658.8483 2823.3140 0.0000 -202828.6118 22487.8148 53.4293 0.0000 0.0000 -176644.6693 0.0000 -176644.6693 -176644.6693 0.0000 16706.3892 -4748.0205 534946.2959 16706.3892 -4748.0205
TCL: Setting parameter constraintScaling to 0.01953125
TCL: Minimizing for 100 steps
ETITLE: TS BOND ANGLE DIHED IMPRP ELECT VDW BOUNDARY MISC KINETIC TOTAL TEMP POTENTIAL TOTAL3 TEMPAVG PRESSURE GPRESSURE VOLUME PRESSAVG GPRESSAVG
ENERGY: 900 160.5361 658.8483 2823.3140 0.0000 -202828.6118 22487.8148 26.7147 0.0000 0.0000 -176671.3839 0.0000 -176671.3839 -176671.3839 0.0000 16729.2262 -27240.4214 534946.2959 16729.2262 -27240.4214
ENERGY: 920 287.5723 684.3693 2827.6678 0.0000 -203068.4839 22589.3416 27.5575 0.0000 0.0000 -176651.9754 0.0000 -176651.9754 -176651.9754 0.0000 16741.0248 -4736.1226 534946.2959 16741.0248 -4736.1226
ENERGY: 940 206.7175 657.9277 2816.8859 0.0000 -203642.1140 22825.1407 29.1206 0.0000 0.0000 -177106.3217 0.0000 -177106.3217 -177106.3217 0.0000 16876.9658 -4672.5503 534946.2959 16876.9658 -4672.5503
ENERGY: 960 164.2143 652.1985 2815.2778 0.0000 -203994.0186 22979.6347 30.1285 0.0000 0.0000 -177352.5648 0.0000 -177352.5648 -177352.5648 0.0000 16959.8724 -4632.5935 534946.2959 16959.8724 -4632.5935
ENERGY: 980 175.4311 658.6708 2814.3736 0.0000 -204224.9743 23078.7297 30.7329 0.0000 0.0000 -177467.0362 0.0000 -177467.0362 -177467.0362 0.0000 16996.7718 -4622.5677 534946.2959 16996.7718 -4622.5677
ENERGY: 1000 207.4511 667.4571 2811.3489 0.0000 -204931.3245 23391.0663 32.6565 0.0000 0.0000 -177821.3446 0.0000 -177821.3446 -177821.3446 0.0000 17170.3213 -4535.3417 534946.2959 17170.3213 -4535.3417
TCL: Setting parameter constraintScaling to 0
TCL: Minimizing for 5000 steps
ETITLE: TS BOND ANGLE DIHED IMPRP ELECT VDW BOUNDARY MISC KINETIC TOTAL TEMP POTENTIAL TOTAL3 TEMPAVG PRESSURE GPRESSURE VOLUME PRESSAVG GPRESSAVG
ENERGY: 1000 207.4511 667.4571 2811.3489 0.0000 -204931.3245 23391.0663 0.0000 0.0000 0.0000 -177854.0011 0.0000 -177854.0011 -177854.0011 0.0000 17196.4804 -27277.0082 534946.2959 17196.4804 -27277.0082
ENERGY: 2000 238.0062 676.1380 2801.8580 0.0000 -214398.2021 27626.6151 0.0000 0.0000 0.0000 -183055.5847 0.0000 -183055.5847 -183055.5847 0.0000 19416.7875 -3338.4778 534946.2959 19416.7875 -3338.4778
ENERGY: 3000 168.2988 667.7622 2793.4526 0.0000 -217412.2192 28871.5294 0.0000 0.0000 0.0000 -184911.1762 0.0000 -184911.1762 -184911.1762 0.0000 20108.1406 -2954.3647 534946.2959 20108.1406 -2954.3647
ENERGY: 4000 167.3248 665.9024 2787.3048 0.0000 -218673.7866 29360.1714 0.0000 0.0000 0.0000 -185693.0831 0.0000 -185693.0831 -185693.0831 0.0000 20360.3708 -2830.3943 534946.2959 20360.3708 -2830.3943
ENERGY: 5000 169.3097 668.0830 2783.5214 0.0000 -219296.9085 29559.7211 0.0000 0.0000 0.0000 -186116.2733 0.0000 -186116.2733 -186116.2733 0.0000 20454.9168 -2802.5212 534946.2959 20454.9168 -2802.5212
ENERGY: 6000 166.6817 667.6442 2785.5050 0.0000 -219801.1343 29743.3384 0.0000 0.0000 0.0000 -186437.9650 0.0000 -186437.9650 -186437.9650 0.0000 20550.9324 -2759.5616 534946.2959 20550.9324 -2759.5616
