Info: SIMULATION PARAMETERS:
Info: TIMESTEP               2
Info: NUMBER OF STEPS        0
Info: STEPS PER CYCLE        10
Info: PERIODIC CELL BASIS 1  72.449 0 0
Info: PERIODIC CELL BASIS 2  0 93.247 0
Info: PERIODIC CELL BASIS 3  0 0 79.185
Info: PERIODIC CELL CENTER   -0.248 -0.156 -0.047
Info: WRAPPING WATERS AROUND PERIODIC BOUNDARIES ON OUTPUT.
Info: WRAPPING ALL CLUSTERS AROUND PERIODIC BOUNDARIES ON OUTPUT.
Info: FIRST LDB TIMESTEP     50
Info: LAST LDB TIMESTEP     -1
Info: HOM BACKGROUND SCALING 1
Info: PME BACKGROUND SCALING 1
Info: MIN ATOMS PER PATCH    40
Info: INITIAL TEMPERATURE    0
Info: CENTER OF MASS MOVING INITIALLY? NO
Info: DIELECTRIC             1
Info: EXCLUDE                SCALED ONE-FOUR
Info: 1-4 ELECTROSTATICS SCALED BY 0.833333
Info: MODIFIED 1-4 VDW PARAMETERS WILL BE USED
Info: NO DCD TRAJECTORY OUTPUT
Info: NO EXTENDED SYSTEM TRAJECTORY OUTPUT
Info: NO VELOCITY DCD OUTPUT
Info: NO FORCE DCD OUTPUT
Info: OUTPUT FILENAME        ../replicas/rep114/equilibration/eq0
Info: NO RESTART FILE
Info: SWITCHING ACTIVE
Info: SWITCHING ON           10
Info: SWITCHING OFF          12
Info: PAIRLIST DISTANCE      13.5
Info: PAIRLIST SHRINK RATE   0.01
Info: PAIRLIST GROW RATE     0.01
Info: PAIRLIST TRIGGER       0.3
Info: PAIRLISTS PER CYCLE    2
Info: PAIRLISTS ENABLED
Info: MARGIN                 0
Info: HYDROGEN GROUP CUTOFF  2.5
Info: PATCH DIMENSION        16
Info: ENERGY OUTPUT STEPS    500
Info: CROSSTERM ENERGY INCLUDED IN DIHEDRAL
Info: TIMING OUTPUT STEPS    5000
Info: PRESSURE OUTPUT STEPS  500
Info: HARMONIC CONSTRAINTS ACTIVE
Info: HARMONIC CONS EXP      2
Info: HARMONIC CONS SCALING  10
Info: CONJUGATE GRADIENT MINIMIZATION ACTIVE
Info: LINE MINIMIZATION GOAL = 0.001
Info: BABY STEP SIZE = 0.01
Info: TINY STEP SIZE = 1e-06
Info: PARTICLE MESH EWALD (PME) ACTIVE
Info: PME TOLERANCE               1e-06
Info: PME EWALD COEFFICIENT       0.257952
Info: PME INTERPOLATION ORDER     4
Info: PME GRID DIMENSIONS         80 96 80
Info: PME MAXIMUM GRID SPACING    1
Info: FULL ELECTROSTATIC EVALUATION FREQUENCY      2
Info: USING VERLET I (r-RESPA) MTS SCHEME.
Info: C1 SPLITTING OF LONG RANGE ELECTROSTATICS
Info: PLACING ATOMS IN PATCHES BY HYDROGEN GROUPS
Info: RIGID BONDS TO HYDROGEN : ALL
Info:         ERROR TOLERANCE : 1e-05
Info:          MAX ITERATIONS : 100
Info: RIGID WATER USING SETTLE ALGORITHM
Info: RANDOM NUMBER SEED     1503693578
Info: USE HYDROGEN BONDS?    NO
Info: Using AMBER format force field!
Info: AMBER PARM FILE        ../build/complex.top
Info: COORDINATE PDB         ../build/complex.pdb
Info: Exclusions in PARM file will be ignored!
Info: SCNB (VDW SCALING)     2
Info: USING ARITHMETIC MEAN TO COMBINE L-J SIGMA PARAMETERS
Info: SUMMARY OF PARAMETERS:
Info: 71 BONDS
Info: 145 ANGLES
Info: 76 DIHEDRAL
Info: 0 IMPROPER
Info: 0 CROSSTERM
Info: 0 VDW
Info: 190 VDW_PAIRS
Info: 0 NBTHOLE_PAIRS
Info: STRUCTURE SUMMARY:
Info: 49394 ATOMS
Info: 49448 BONDS
Info: 8698 ANGLES
Info: 18780 DIHEDRALS
Info: 0 IMPROPERS
Info: 0 CROSSTERMS
Info: 0 EXCLUSIONS
Info: 2336 CONSTRAINTS
Info: 47058 RIGID BONDS
Info: 101124 DEGREES OF FREEDOM
Info: 17225 HYDROGEN GROUPS
Info: 4 ATOMS IN LARGEST HYDROGEN GROUP
Info: 17225 MIGRATION GROUPS
Info: 4 ATOMS IN LARGEST MIGRATION GROUP
Info: TOTAL MASS = 301478 amu
Info: TOTAL CHARGE = 1.00115e-05 e
Info: MASS DENSITY = 0.935846 g/cm^3
Info: ATOM DENSITY = 0.0923345 atoms/A^3
Info: ADDED 70656 IMPLICIT EXCLUSIONS
Info: NONBONDED TABLE R-SQUARED SPACING: 0.0625
Info: NONBONDED TABLE SIZE: 769 POINTS
Info: REMOVING COM VELOCITY 0 0 0
TCL: Minimizing for 100 steps
ETITLE: TS BOND ANGLE DIHED IMPRP ELECT VDW BOUNDARY MISC KINETIC TOTAL TEMP POTENTIAL TOTAL3 TEMPAVG PRESSURE GPRESSURE VOLUME PRESSAVG GPRESSAVG
ENERGY: 0 155.4176 1012.2698 2855.7272 0.0000 -154496.7911 207729.2052 0.0468 0.0000 0.0000 57255.8755 0.0000 57255.8755 57255.8755 0.0000 116350.2532 86546.1670 534946.2959 116350.2532 86546.1670
ENERGY: 20 304.7525 935.7909 2893.4663 0.0000 -158672.9388 17936.6604 143.9453 0.0000 0.0000 -136458.3235 0.0000 -136458.3235 -136458.3235 0.0000 16523.9398 -239.4546 534946.2959 16523.9398 -239.4546
ENERGY: 40 198.7409 799.5722 2896.9273 0.0000 -162811.4549 16417.9531 221.3029 0.0000 0.0000 -142276.9585 0.0000 -142276.9585 -142276.9585 0.0000 15011.2698 -2135.4704 534946.2959 15011.2698 -2135.4704
ENERGY: 60 130.5286 715.3440 2898.2165 0.0000 -167496.1562 15446.7541 315.2796 0.0000 0.0000 -147990.0335 0.0000 -147990.0335 -147990.0335 0.0000 13793.8840 -3799.3984 534946.2959 13793.8840 -3799.3984
ENERGY: 80 431.2767 765.6315 2904.3781 0.0000 -169937.5172 15121.1538 372.0119 0.0000 0.0000 -150343.0652 0.0000 -150343.0652 -150343.0652 0.0000 13270.3342 -4577.2412 534946.2959 13270.3342 -4577.2412
ENERGY: 100 129.7166 708.0660 2904.2778 0.0000 -171050.0690 15018.6527 384.1998 0.0000 0.0000 -151905.1561 0.0000 -151905.1561 -151905.1561 0.0000 13092.9125 -4843.6331 534946.2959 13092.9125 -4843.6331
TCL: Setting parameter constraintScaling to 5.0
TCL: Minimizing for 100 steps
ETITLE: TS BOND ANGLE DIHED IMPRP ELECT VDW BOUNDARY MISC KINETIC TOTAL TEMP POTENTIAL TOTAL3 TEMPAVG PRESSURE GPRESSURE VOLUME PRESSAVG GPRESSAVG
ENERGY: 100 129.7166 708.0660 2904.2778 0.0000 -171050.0690 15018.6527 192.0999 0.0000 0.0000 -152097.2560 0.0000 -152097.2560 -152097.2560 0.0000 13703.5077 -22944.4558 534946.2959 13703.5077 -22944.4558
ENERGY: 120 118.6825 680.2879 2909.9065 0.0000 -172396.3232 14830.1200 259.9552 0.0000 0.0000 -153597.3711 0.0000 -153597.3711 -153597.3711 0.0000 13320.9453 -4756.3102 534946.2959 13320.9453 -4756.3102
ENERGY: 140 109.1504 671.1472 2912.0863 0.0000 -174830.2859 14716.1438 337.7312 0.0000 0.0000 -156084.0269 0.0000 -156084.0269 -156084.0269 0.0000 12908.9547 -5423.1536 534946.2959 12908.9547 -5423.1536
ENERGY: 160 125.8589 667.1475 2914.1929 0.0000 -175966.9892 14735.1316 362.9175 0.0000 0.0000 -157161.7409 0.0000 -157161.7409 -157161.7409 0.0000 12806.9032 -5637.6302 534946.2959 12806.9032 -5637.6302
ENERGY: 180 303.5521 659.6742 2917.2961 0.0000 -177408.5466 14815.0024 395.3794 0.0000 0.0000 -158317.6425 0.0000 -158317.6425 -158317.6425 0.0000 12699.3241 -5894.6282 534946.2959 12699.3241 -5894.6282
ENERGY: 200 109.2124 628.4926 2923.3613 0.0000 -179544.5627 15071.2764 441.9034 0.0000 0.0000 -160370.3167 0.0000 -160370.3167 -160370.3167 0.0000 12659.9873 -6155.3616 534946.2959 12659.9873 -6155.3616
TCL: Setting parameter constraintScaling to 2.5
TCL: Minimizing for 100 steps
ETITLE: TS BOND ANGLE DIHED IMPRP ELECT VDW BOUNDARY MISC KINETIC TOTAL TEMP POTENTIAL TOTAL3 TEMPAVG PRESSURE GPRESSURE VOLUME PRESSAVG GPRESSAVG
ENERGY: 200 109.2124 628.4926 2923.3613 0.0000 -179544.5628 15071.2764 220.9517 0.0000 0.0000 -160591.2684 0.0000 -160591.2684 -160591.2684 0.0000 13208.4258 -25274.5684 534946.2959 13208.4258 -25274.5684
ENERGY: 220 275.1894 652.1547 2925.2602 0.0000 -180396.6143 15109.0011 288.0118 0.0000 0.0000 -161146.9971 0.0000 -161146.9971 -161146.9971 0.0000 12999.9021 -5914.9036 534946.2959 12999.9021 -5914.9036
ENERGY: 240 144.5145 629.0530 2922.0907 0.0000 -181650.2554 15308.7659 331.5071 0.0000 0.0000 -162314.3242 0.0000 -162314.3242 -162314.3242 0.0000 12968.7384 -6075.9035 534946.2959 12968.7384 -6075.9035
ENERGY: 260 238.7761 648.3780 2922.1982 0.0000 -183612.5137 15753.5875 410.1386 0.0000 0.0000 -163639.4354 0.0000 -163639.4354 -163639.4354 0.0000 12997.8088 -6265.8183 534946.2959 12997.8088 -6265.8183
ENERGY: 280 182.8039 654.5591 2917.9311 0.0000 -184833.7882 16104.7385 431.3131 0.0000 0.0000 -164542.4426 0.0000 -164542.4426 -164542.4426 0.0000 13136.4175 -6268.9220 534946.2959 13136.4175 -6268.9220
ENERGY: 300 181.4107 672.7741 2923.2704 0.0000 -185743.6006 16392.9838 428.1717 0.0000 0.0000 -165144.9900 0.0000 -165144.9900 -165144.9900 0.0000 13254.6831 -6239.3270 534946.2959 13254.6831 -6239.3270
TCL: Setting parameter constraintScaling to 1.25
TCL: Minimizing for 100 steps
ETITLE: TS BOND ANGLE DIHED IMPRP ELECT VDW BOUNDARY MISC KINETIC TOTAL TEMP POTENTIAL TOTAL3 TEMPAVG PRESSURE GPRESSURE VOLUME PRESSAVG GPRESSAVG
ENERGY: 300 181.4107 672.7741 2923.2704 0.0000 -185743.6006 16392.9838 214.0858 0.0000 0.0000 -165359.0758 0.0000 -165359.0758 -165359.0758 0.0000 13670.4115 -26244.2008 534946.2959 13670.4115 -26244.2008
ENERGY: 320 164.8823 664.4638 2915.3196 0.0000 -186225.8625 16489.0454 249.6978 0.0000 0.0000 -165742.4535 0.0000 -165742.4535 -165742.4535 0.0000 13645.2366 -5912.1988 534946.2959 13645.2366 -5912.1988
ENERGY: 340 204.7328 681.3535 2911.2749 0.0000 -187484.3258 16828.7360 334.1138 0.0000 0.0000 -166524.1148 0.0000 -166524.1148 -166524.1148 0.0000 13597.2593 -6090.4698 534946.2959 13597.2593 -6090.4698
ENERGY: 360 137.8388 653.9676 2904.6821 0.0000 -188133.5729 17033.0187 361.2836 0.0000 0.0000 -167042.7820 0.0000 -167042.7820 -167042.7820 0.0000 13686.1472 -6088.1571 534946.2959 13686.1472 -6088.1571
ENERGY: 380 180.3840 664.5964 2910.8883 0.0000 -188941.4638 17357.4986 330.1545 0.0000 0.0000 -167497.9420 0.0000 -167497.9420 -167497.9420 0.0000 13894.7160 -5954.2058 534946.2959 13894.7160 -5954.2058
ENERGY: 400 207.4198 687.7637 2928.8900 0.0000 -190175.1582 17862.2685 325.5575 0.0000 0.0000 -168163.2586 0.0000 -168163.2586 -168163.2586 0.0000 14196.0260 -5822.4132 534946.2959 14196.0260 -5822.4132
TCL: Setting parameter constraintScaling to 0.625
TCL: Minimizing for 100 steps
ETITLE: TS BOND ANGLE DIHED IMPRP ELECT VDW BOUNDARY MISC KINETIC TOTAL TEMP POTENTIAL TOTAL3 TEMPAVG PRESSURE GPRESSURE VOLUME PRESSAVG GPRESSAVG
ENERGY: 400 207.4198 687.7637 2928.8900 0.0000 -190175.1582 17862.2685 162.7788 0.0000 0.0000 -168326.0374 0.0000 -168326.0374 -168326.0374 0.0000 14473.9468 -26498.0807 534946.2959 14473.9468 -26498.0807
ENERGY: 420 152.8030 633.5080 2899.0736 0.0000 -190513.6141 17911.2876 193.7022 0.0000 0.0000 -168723.2397 0.0000 -168723.2397 -168723.2397 0.0000 14364.8289 -5671.2851 534946.2959 14364.8289 -5671.2851
ENERGY: 440 173.7623 662.5367 2895.5590 0.0000 -191407.2710 18171.1730 251.4784 0.0000 0.0000 -169252.7616 0.0000 -169252.7616 -169252.7616 0.0000 14332.8440 -5796.0208 534946.2959 14332.8440 -5796.0208
ENERGY: 460 155.6347 668.7478 2888.8799 0.0000 -192660.2240 18621.9205 286.1939 0.0000 0.0000 -170038.8472 0.0000 -170038.8472 -170038.8472 0.0000 14545.5746 -5732.0168 534946.2959 14545.5746 -5732.0168
ENERGY: 480 170.6650 660.1081 2885.7292 0.0000 -192983.8878 18760.0654 289.0505 0.0000 0.0000 -170218.2696 0.0000 -170218.2696 -170218.2696 0.0000 14592.8232 -5720.3257 534946.2959 14592.8232 -5720.3257
ENERGY: 500 237.4502 710.7362 2899.6183 0.0000 -194801.7357 19591.8614 292.0817 0.0000 0.0000 -171069.9878 0.0000 -171069.9878 -171069.9878 0.0000 15091.8348 -5442.4691 534946.2959 15091.8348 -5442.4691
TCL: Setting parameter constraintScaling to 0.3125
TCL: Minimizing for 100 steps
ETITLE: TS BOND ANGLE DIHED IMPRP ELECT VDW BOUNDARY MISC KINETIC TOTAL TEMP POTENTIAL TOTAL3 TEMPAVG PRESSURE GPRESSURE VOLUME PRESSAVG GPRESSAVG
ENERGY: 500 237.4502 710.7362 2899.6183 0.0000 -194801.7357 19591.8614 146.0409 0.0000 0.0000 -171216.0287 0.0000 -171216.0287 -171216.0287 0.0000 15284.8695 -26776.1412 534946.2959 15284.8695 -26776.1412
ENERGY: 520 154.3204 639.7322 2886.2016 0.0000 -195000.2847 19590.8512 156.9442 0.0000 0.0000 -171572.2352 0.0000 -171572.2352 -171572.2352 0.0000 15237.2563 -5304.3076 534946.2959 15237.2563 -5304.3076
ENERGY: 540 164.1748 667.6194 2874.0787 0.0000 -195407.9240 19694.6842 179.2665 0.0000 0.0000 -171828.1005 0.0000 -171828.1005 -171828.1005 0.0000 15212.0596 -5369.1906 534946.2959 15212.0596 -5369.1906
ENERGY: 560 166.4509 681.5650 2876.1849 0.0000 -195927.1923 19870.9045 202.9261 0.0000 0.0000 -172129.1610 0.0000 -172129.1610 -172129.1610 0.0000 15224.4993 -5410.8672 534946.2959 15224.4993 -5410.8672
ENERGY: 580 158.5688 672.8502 2877.6796 0.0000 -196407.2737 20087.6551 197.2296 0.0000 0.0000 -172413.2903 0.0000 -172413.2903 -172413.2903 0.0000 15366.0976 -5324.4819 534946.2959 15366.0976 -5324.4819
ENERGY: 600 171.8441 710.4131 2897.7231 0.0000 -197068.5966 20419.3106 197.5387 0.0000 0.0000 -172671.7670 0.0000 -172671.7670 -172671.7670 0.0000 15633.1647 -5148.3588 534946.2959 15633.1647 -5148.3588
TCL: Setting parameter constraintScaling to 0.15625
TCL: Minimizing for 100 steps
ETITLE: TS BOND ANGLE DIHED IMPRP ELECT VDW BOUNDARY MISC KINETIC TOTAL TEMP POTENTIAL TOTAL3 TEMPAVG PRESSURE GPRESSURE VOLUME PRESSAVG GPRESSAVG
ENERGY: 600 171.8441 710.4131 2897.7231 0.0000 -197068.5966 20419.3106 98.7694 0.0000 0.0000 -172770.5363 0.0000 -172770.5363 -172770.5363 0.0000 15749.2792 -26848.0447 534946.2959 15749.2792 -26848.0447
ENERGY: 620 151.5184 642.1885 2867.9178 0.0000 -197325.9123 20411.6600 108.0990 0.0000 0.0000 -173144.5285 0.0000 -173144.5285 -173144.5285 0.0000 15659.4520 -5149.5779 534946.2959 15659.4520 -5149.5779
ENERGY: 640 194.1723 719.6850 2875.7948 0.0000 -197811.6816 20570.6675 124.9388 0.0000 0.0000 -173326.4231 0.0000 -173326.4231 -173326.4231 0.0000 15630.3172 -5236.4559 534946.2959 15630.3172 -5236.4559
ENERGY: 660 252.5197 716.7459 2865.5004 0.0000 -198643.3677 20889.0762 141.9457 0.0000 0.0000 -173777.5797 0.0000 -173777.5797 -173777.5797 0.0000 15752.4246 -5207.0349 534946.2959 15752.4246 -5207.0349
ENERGY: 680 183.4683 683.5356 2853.6707 0.0000 -199147.8188 21077.5669 144.5295 0.0000 0.0000 -174205.0478 0.0000 -174205.0478 -174205.0478 0.0000 15877.2216 -5137.2606 534946.2959 15877.2216 -5137.2606
ENERGY: 700 166.2755 675.2571 2855.6506 0.0000 -199488.8808 21230.5299 141.0942 0.0000 0.0000 -174420.0734 0.0000 -174420.0734 -174420.0734 0.0000 16004.6276 -5053.1532 534946.2959 16004.6276 -5053.1532
TCL: Setting parameter constraintScaling to 0.078125
TCL: Minimizing for 100 steps
ETITLE: TS BOND ANGLE DIHED IMPRP ELECT VDW BOUNDARY MISC KINETIC TOTAL TEMP POTENTIAL TOTAL3 TEMPAVG PRESSURE GPRESSURE VOLUME PRESSAVG GPRESSAVG
ENERGY: 700 166.2755 675.2571 2855.6506 0.0000 -199488.8808 21230.5299 70.5471 0.0000 0.0000 -174490.6205 0.0000 -174490.6205 -174490.6205 0.0000 16075.7936 -27088.1487 534946.2959 16075.7936 -27088.1487
ENERGY: 720 162.4631 658.2252 2846.1067 0.0000 -199710.5695 21286.9199 74.5430 0.0000 0.0000 -174682.3117 0.0000 -174682.3117 -174682.3117 0.0000 16066.1512 -5012.8845 534946.2959 16066.1512 -5012.8845
ENERGY: 740 162.6313 670.8065 2843.5732 0.0000 -199915.6425 21364.7540 77.4799 0.0000 0.0000 -174796.3975 0.0000 -174796.3975 -174796.3975 0.0000 16092.6185 -5014.9643 534946.2959 16092.6185 -5014.9643
ENERGY: 760 160.4193 648.8919 2843.3339 0.0000 -200088.0048 21417.1255 77.9361 0.0000 0.0000 -174940.2981 0.0000 -174940.2981 -174940.2981 0.0000 16140.0156 -4991.3820 534946.2959 16140.0156 -4991.3820
ENERGY: 780 182.8768 665.7463 2841.8607 0.0000 -200698.1925 21648.7099 82.9393 0.0000 0.0000 -175276.0595 0.0000 -175276.0595 -175276.0595 0.0000 16261.8634 -4940.6197 534946.2959 16261.8634 -4940.6197
ENERGY: 800 161.1471 666.7796 2830.5030 0.0000 -202058.4430 22256.5704 96.9744 0.0000 0.0000 -176046.4686 0.0000 -176046.4686 -176046.4686 0.0000 16553.3550 -4802.4288 534946.2959 16553.3550 -4802.4288
TCL: Setting parameter constraintScaling to 0.0390625
TCL: Minimizing for 100 steps
ETITLE: TS BOND ANGLE DIHED IMPRP ELECT VDW BOUNDARY MISC KINETIC TOTAL TEMP POTENTIAL TOTAL3 TEMPAVG PRESSURE GPRESSURE VOLUME PRESSAVG GPRESSAVG
ENERGY: 800 161.1471 666.7796 2830.5030 0.0000 -202058.4430 22256.5704 48.4872 0.0000 0.0000 -176094.9558 0.0000 -176094.9558 -176094.9558 0.0000 16596.0036 -27184.1989 534946.2959 16596.0036 -27184.1989
ENERGY: 820 164.0283 659.0365 2829.6577 0.0000 -202241.0802 22296.5600 49.2315 0.0000 0.0000 -176242.5663 0.0000 -176242.5663 -176242.5663 0.0000 16616.5014 -4763.0955 534946.2959 16616.5014 -4763.0955
ENERGY: 840 309.2430 747.3349 2835.8367 0.0000 -202608.1333 22427.5468 51.2983 0.0000 0.0000 -176236.8735 0.0000 -176236.8735 -176236.8735 0.0000 16605.0446 -4823.1915 534946.2959 16605.0446 -4823.1915
ENERGY: 860 168.5282 663.1831 2824.2206 0.0000 -202707.9768 22459.8493 51.6854 0.0000 0.0000 -176540.5103 0.0000 -176540.5103 -176540.5103 0.0000 16672.2670 -4762.4966 534946.2959 16672.2670 -4762.4966
ENERGY: 880 184.6095 705.7979 2828.6122 0.0000 -203392.4387 22782.7613 54.9009 0.0000 0.0000 -176835.7570 0.0000 -176835.7570 -176835.7570 0.0000 16870.6590 -4653.0158 534946.2959 16870.6590 -4653.0158
ENERGY: 900 164.4207 658.3687 2824.3749 0.0000 -203601.9714 22857.1356 55.8543 0.0000 0.0000 -177041.8172 0.0000 -177041.8172 -177041.8172 0.0000 16895.5692 -4634.5868 534946.2959 16895.5692 -4634.5868
TCL: Setting parameter constraintScaling to 0.01953125
TCL: Minimizing for 100 steps
ETITLE: TS BOND ANGLE DIHED IMPRP ELECT VDW BOUNDARY MISC KINETIC TOTAL TEMP POTENTIAL TOTAL3 TEMPAVG PRESSURE GPRESSURE VOLUME PRESSAVG GPRESSAVG
ENERGY: 900 164.4207 658.3687 2824.3749 0.0000 -203601.9714 22857.1356 27.9271 0.0000 0.0000 -177069.7444 0.0000 -177069.7444 -177069.7444 0.0000 16919.0616 -27228.0311 534946.2959 16919.0616 -27228.0311
ENERGY: 920 163.2820 647.7826 2818.6111 0.0000 -203746.6197 22887.4905 28.4446 0.0000 0.0000 -177201.0089 0.0000 -177201.0089 -177201.0089 0.0000 16920.8340 -4630.7175 534946.2959 16920.8340 -4630.7175
ENERGY: 940 194.1192 663.2027 2818.1869 0.0000 -204029.0130 23007.8122 29.4550 0.0000 0.0000 -177316.2370 0.0000 -177316.2370 -177316.2370 0.0000 16939.7661 -4634.1286 534946.2959 16939.7661 -4634.1286
ENERGY: 960 232.5859 691.7444 2818.4577 0.0000 -204322.7574 23133.2597 30.4039 0.0000 0.0000 -177416.3058 0.0000 -177416.3058 -177416.3058 0.0000 16998.0160 -4606.5956 534946.2959 16998.0160 -4606.5956
ENERGY: 980 247.3875 667.5385 2816.1461 0.0000 -204503.1765 23208.0359 30.6153 0.0000 0.0000 -177533.4531 0.0000 -177533.4531 -177533.4531 0.0000 17090.3032 -4564.2561 534946.2959 17090.3032 -4564.2561
ENERGY: 1000 179.5453 661.1534 2820.5116 0.0000 -204908.4799 23417.6509 31.5889 0.0000 0.0000 -177798.0298 0.0000 -177798.0298 -177798.0298 0.0000 17216.0606 -4475.9812 534946.2959 17216.0606 -4475.9812
TCL: Setting parameter constraintScaling to 0
TCL: Minimizing for 5000 steps
ETITLE: TS BOND ANGLE DIHED IMPRP ELECT VDW BOUNDARY MISC KINETIC TOTAL TEMP POTENTIAL TOTAL3 TEMPAVG PRESSURE GPRESSURE VOLUME PRESSAVG GPRESSAVG
ENERGY: 1000 179.5453 661.1534 2820.5116 0.0000 -204908.4799 23417.6509 0.0000 0.0000 0.0000 -177829.6187 0.0000 -177829.6187 -177829.6187 0.0000 17241.6112 -27216.9658 534946.2959 17241.6112 -27216.9658
ENERGY: 2000 174.8080 671.0092 2802.9693 0.0000 -214927.4975 27927.0494 0.0000 0.0000 0.0000 -183351.6616 0.0000 -183351.6616 -183351.6616 0.0000 19629.4105 -3194.0780 534946.2959 19629.4105 -3194.0780
ENERGY: 3000 167.6343 668.0535 2794.8679 0.0000 -217517.3702 28925.4859 0.0000 0.0000 0.0000 -184961.3285 0.0000 -184961.3285 -184961.3285 0.0000 20138.6312 -2951.5468 534946.2959 20138.6312 -2951.5468
ENERGY: 4000 175.5799 665.7435 2788.7134 0.0000 -218965.8800 29512.6016 0.0000 0.0000 0.0000 -185823.2417 0.0000 -185823.2417 -185823.2417 0.0000 20453.9629 -2787.7458 534946.2959 20453.9629 -2787.7458
ENERGY: 5000 164.9933 663.3635 2788.3771 0.0000 -219618.1300 29754.0371 0.0000 0.0000 0.0000 -186247.3590 0.0000 -186247.3590 -186247.3590 0.0000 20579.6854 -2729.4397 534946.2959 20579.6854 -2729.4397
ENERGY: 6000 164.7471 664.4643 2784.9470 0.0000 -220007.1287 29887.6569 0.0000 0.0000 0.0000 -186505.3135 0.0000 -186505.3135 -186505.3135 0.0000 20658.2110 -2690.4731 534946.2959 20658.2110 -2690.4731
