Info: SIMULATION PARAMETERS:
Info: TIMESTEP               2
Info: NUMBER OF STEPS        0
Info: STEPS PER CYCLE        10
Info: PERIODIC CELL BASIS 1  72.449 0 0
Info: PERIODIC CELL BASIS 2  0 93.247 0
Info: PERIODIC CELL BASIS 3  0 0 79.185
Info: PERIODIC CELL CENTER   -0.248 -0.156 -0.047
Info: WRAPPING WATERS AROUND PERIODIC BOUNDARIES ON OUTPUT.
Info: WRAPPING ALL CLUSTERS AROUND PERIODIC BOUNDARIES ON OUTPUT.
Info: FIRST LDB TIMESTEP     50
Info: LAST LDB TIMESTEP     -1
Info: HOM BACKGROUND SCALING 1
Info: PME BACKGROUND SCALING 1
Info: MIN ATOMS PER PATCH    40
Info: INITIAL TEMPERATURE    0
Info: CENTER OF MASS MOVING INITIALLY? NO
Info: DIELECTRIC             1
Info: EXCLUDE                SCALED ONE-FOUR
Info: 1-4 ELECTROSTATICS SCALED BY 0.833333
Info: MODIFIED 1-4 VDW PARAMETERS WILL BE USED
Info: NO DCD TRAJECTORY OUTPUT
Info: NO EXTENDED SYSTEM TRAJECTORY OUTPUT
Info: NO VELOCITY DCD OUTPUT
Info: NO FORCE DCD OUTPUT
Info: OUTPUT FILENAME        ../replicas/rep63/equilibration/eq0
Info: NO RESTART FILE
Info: SWITCHING ACTIVE
Info: SWITCHING ON           10
Info: SWITCHING OFF          12
Info: PAIRLIST DISTANCE      13.5
Info: PAIRLIST SHRINK RATE   0.01
Info: PAIRLIST GROW RATE     0.01
Info: PAIRLIST TRIGGER       0.3
Info: PAIRLISTS PER CYCLE    2
Info: PAIRLISTS ENABLED
Info: MARGIN                 0
Info: HYDROGEN GROUP CUTOFF  2.5
Info: PATCH DIMENSION        16
Info: ENERGY OUTPUT STEPS    500
Info: CROSSTERM ENERGY INCLUDED IN DIHEDRAL
Info: TIMING OUTPUT STEPS    5000
Info: PRESSURE OUTPUT STEPS  500
Info: HARMONIC CONSTRAINTS ACTIVE
Info: HARMONIC CONS EXP      2
Info: HARMONIC CONS SCALING  10
Info: CONJUGATE GRADIENT MINIMIZATION ACTIVE
Info: LINE MINIMIZATION GOAL = 0.001
Info: BABY STEP SIZE = 0.01
Info: TINY STEP SIZE = 1e-06
Info: PARTICLE MESH EWALD (PME) ACTIVE
Info: PME TOLERANCE               1e-06
Info: PME EWALD COEFFICIENT       0.257952
Info: PME INTERPOLATION ORDER     4
Info: PME GRID DIMENSIONS         80 96 80
Info: PME MAXIMUM GRID SPACING    1
Info: FULL ELECTROSTATIC EVALUATION FREQUENCY      2
Info: USING VERLET I (r-RESPA) MTS SCHEME.
Info: C1 SPLITTING OF LONG RANGE ELECTROSTATICS
Info: PLACING ATOMS IN PATCHES BY HYDROGEN GROUPS
Info: RIGID BONDS TO HYDROGEN : ALL
Info:         ERROR TOLERANCE : 1e-05
Info:          MAX ITERATIONS : 100
Info: RIGID WATER USING SETTLE ALGORITHM
Info: RANDOM NUMBER SEED     1503691538
Info: USE HYDROGEN BONDS?    NO
Info: Using AMBER format force field!
Info: AMBER PARM FILE        ../build/complex.top
Info: COORDINATE PDB         ../build/complex.pdb
Info: Exclusions in PARM file will be ignored!
Info: SCNB (VDW SCALING)     2
Info: USING ARITHMETIC MEAN TO COMBINE L-J SIGMA PARAMETERS
Info: SUMMARY OF PARAMETERS:
Info: 71 BONDS
Info: 145 ANGLES
Info: 76 DIHEDRAL
Info: 0 IMPROPER
Info: 0 CROSSTERM
Info: 0 VDW
Info: 190 VDW_PAIRS
Info: 0 NBTHOLE_PAIRS
Info: STRUCTURE SUMMARY:
Info: 49394 ATOMS
Info: 49448 BONDS
Info: 8698 ANGLES
Info: 18780 DIHEDRALS
Info: 0 IMPROPERS
Info: 0 CROSSTERMS
Info: 0 EXCLUSIONS
Info: 2336 CONSTRAINTS
Info: 47058 RIGID BONDS
Info: 101124 DEGREES OF FREEDOM
Info: 17225 HYDROGEN GROUPS
Info: 4 ATOMS IN LARGEST HYDROGEN GROUP
Info: 17225 MIGRATION GROUPS
Info: 4 ATOMS IN LARGEST MIGRATION GROUP
Info: TOTAL MASS = 301478 amu
Info: TOTAL CHARGE = 1.00115e-05 e
Info: MASS DENSITY = 0.935846 g/cm^3
Info: ATOM DENSITY = 0.0923345 atoms/A^3
Info: ADDED 70656 IMPLICIT EXCLUSIONS
Info: NONBONDED TABLE R-SQUARED SPACING: 0.0625
Info: NONBONDED TABLE SIZE: 769 POINTS
Info: REMOVING COM VELOCITY 0 0 0
TCL: Minimizing for 100 steps
ETITLE: TS BOND ANGLE DIHED IMPRP ELECT VDW BOUNDARY MISC KINETIC TOTAL TEMP POTENTIAL TOTAL3 TEMPAVG PRESSURE GPRESSURE VOLUME PRESSAVG GPRESSAVG
ENERGY: 0 155.4176 1012.2698 2855.7272 0.0000 -154496.7910 207729.2052 0.0468 0.0000 0.0000 57255.8756 0.0000 57255.8756 57255.8756 0.0000 116350.2532 86546.1670 534946.2959 116350.2532 86546.1670
ENERGY: 20 304.7555 935.7912 2893.4663 0.0000 -158672.9408 17936.6592 143.9454 0.0000 0.0000 -136458.3231 0.0000 -136458.3231 -136458.3231 0.0000 16523.9385 -239.4560 534946.2959 16523.9385 -239.4560
ENERGY: 40 198.7458 799.5730 2896.9273 0.0000 -162811.4528 16417.9537 221.3030 0.0000 0.0000 -142276.9500 0.0000 -142276.9500 -142276.9500 0.0000 15011.2703 -2135.4698 534946.2959 15011.2703 -2135.4698
ENERGY: 60 130.5281 715.3440 2898.2166 0.0000 -167496.1583 15446.7537 315.2797 0.0000 0.0000 -147990.0363 0.0000 -147990.0363 -147990.0363 0.0000 13793.8834 -3799.3991 534946.2959 13793.8834 -3799.3991
ENERGY: 80 431.2724 765.6305 2904.3787 0.0000 -169937.5354 15121.1517 372.0124 0.0000 0.0000 -150343.0898 0.0000 -150343.0898 -150343.0898 0.0000 13270.3295 -4577.2466 534946.2959 13270.3295 -4577.2466
ENERGY: 100 129.7131 708.0647 2904.2781 0.0000 -171050.0665 15018.6536 384.2001 0.0000 0.0000 -151905.1568 0.0000 -151905.1568 -151905.1568 0.0000 13092.9129 -4843.6312 534946.2959 13092.9129 -4843.6312
TCL: Setting parameter constraintScaling to 5.0
TCL: Minimizing for 100 steps
ETITLE: TS BOND ANGLE DIHED IMPRP ELECT VDW BOUNDARY MISC KINETIC TOTAL TEMP POTENTIAL TOTAL3 TEMPAVG PRESSURE GPRESSURE VOLUME PRESSAVG GPRESSAVG
ENERGY: 100 129.7131 708.0647 2904.2781 0.0000 -171050.0664 15018.6536 192.1000 0.0000 0.0000 -152097.2568 0.0000 -152097.2568 -152097.2568 0.0000 13703.5081 -22944.4544 534946.2959 13703.5081 -22944.4544
ENERGY: 120 118.6814 680.2875 2909.9066 0.0000 -172396.3100 14830.1208 259.9548 0.0000 0.0000 -153597.3589 0.0000 -153597.3589 -153597.3589 0.0000 13320.9481 -4756.3061 534946.2959 13320.9481 -4756.3061
ENERGY: 140 109.1478 671.1469 2912.0863 0.0000 -174830.2407 14716.1441 337.7301 0.0000 0.0000 -156083.9855 0.0000 -156083.9855 -156083.9855 0.0000 12908.9622 -5423.1409 534946.2959 12908.9622 -5423.1409
ENERGY: 160 125.8499 667.1506 2914.1925 0.0000 -175967.0312 14735.1339 362.9183 0.0000 0.0000 -157161.7860 0.0000 -157161.7860 -157161.7860 0.0000 12806.8963 -5643.9333 534946.2959 12806.8963 -5643.9333
ENERGY: 180 303.4909 659.6802 2917.2966 0.0000 -177408.7098 14815.0144 395.3825 0.0000 0.0000 -158317.8452 0.0000 -158317.8452 -158317.8452 0.0000 12699.3151 -5901.0121 534946.2959 12699.3151 -5901.0121
ENERGY: 200 109.2108 628.4737 2923.3585 0.0000 -179543.9440 15071.1714 441.8842 0.0000 0.0000 -160369.8453 0.0000 -160369.8453 -160369.8453 0.0000 12659.9886 -6160.7882 534946.2959 12659.9886 -6160.7882
TCL: Setting parameter constraintScaling to 2.5
TCL: Minimizing for 100 steps
ETITLE: TS BOND ANGLE DIHED IMPRP ELECT VDW BOUNDARY MISC KINETIC TOTAL TEMP POTENTIAL TOTAL3 TEMPAVG PRESSURE GPRESSURE VOLUME PRESSAVG GPRESSAVG
ENERGY: 200 109.2108 628.4737 2923.3585 0.0000 -179543.9440 15071.1714 220.9421 0.0000 0.0000 -160590.7874 0.0000 -160590.7874 -160590.7874 0.0000 13208.4142 -25279.9412 534946.2959 13208.4142 -25279.9412
ENERGY: 220 169.2689 639.7886 2924.9636 0.0000 -180454.0651 15113.9489 291.3393 0.0000 0.0000 -161314.7558 0.0000 -161314.7558 -161314.7558 0.0000 13002.2219 -5923.7207 534946.2959 13002.2219 -5923.7207
ENERGY: 240 251.8151 643.1574 2921.3997 0.0000 -181894.1029 15358.9366 339.5303 0.0000 0.0000 -162379.2637 0.0000 -162379.2637 -162379.2637 0.0000 12964.1441 -6116.4425 534946.2959 12964.1441 -6116.4425
ENERGY: 260 174.2120 639.0236 2923.9344 0.0000 -184183.5492 15908.5719 437.6377 0.0000 0.0000 -164100.1696 0.0000 -164100.1696 -164100.1696 0.0000 13009.1941 -6315.6560 534946.2959 13009.1941 -6315.6560
ENERGY: 280 149.1798 648.9683 2918.1902 0.0000 -184718.1840 16070.4966 427.7557 0.0000 0.0000 -164503.5934 0.0000 -164503.5934 -164503.5934 0.0000 13128.5330 -6270.0835 534946.2959 13128.5330 -6270.0835
ENERGY: 300 233.4639 694.2153 2927.8348 0.0000 -186448.6034 16635.2965 426.2541 0.0000 0.0000 -165531.5387 0.0000 -165531.5387 -165531.5387 0.0000 13384.8798 -6210.3381 534946.2959 13384.8798 -6210.3381
TCL: Setting parameter constraintScaling to 1.25
TCL: Minimizing for 100 steps
ETITLE: TS BOND ANGLE DIHED IMPRP ELECT VDW BOUNDARY MISC KINETIC TOTAL TEMP POTENTIAL TOTAL3 TEMPAVG PRESSURE GPRESSURE VOLUME PRESSAVG GPRESSAVG
ENERGY: 300 233.4639 694.2153 2927.8348 0.0000 -186448.6034 16635.2965 213.1270 0.0000 0.0000 -165744.6658 0.0000 -165744.6658 -165744.6658 0.0000 13795.5015 -26298.1416 534946.2959 13795.5015 -26298.1416
ENERGY: 320 166.6581 649.2735 2910.8163 0.0000 -186884.3183 16724.2295 245.4367 0.0000 0.0000 -166187.9041 0.0000 -166187.9041 -166187.9041 0.0000 13784.5802 -5852.2993 534946.2959 13784.5802 -5852.2993
ENERGY: 340 215.5172 689.1513 2917.8517 0.0000 -188500.2811 17167.4672 358.2206 0.0000 0.0000 -167152.0730 0.0000 -167152.0730 -167152.0730 0.0000 13726.5559 -6073.3334 534946.2959 13726.5559 -6073.3334
ENERGY: 360 154.9643 660.1713 2903.5802 0.0000 -188812.1475 17294.1964 343.0329 0.0000 0.0000 -167456.2024 0.0000 -167456.2024 -167456.2024 0.0000 13845.0998 -6005.5798 534946.2959 13845.0998 -6005.5798
ENERGY: 380 187.6004 653.1792 2910.6477 0.0000 -190282.8503 17837.3976 351.8199 0.0000 0.0000 -168342.2056 0.0000 -168342.2056 -168342.2056 0.0000 14105.6242 -5912.8507 534946.2959 14105.6242 -5912.8507
ENERGY: 400 193.5164 670.1618 2900.1651 0.0000 -192353.9478 18734.6777 399.1644 0.0000 0.0000 -169456.2624 0.0000 -169456.2624 -169456.2624 0.0000 14506.2560 -5764.1607 534946.2959 14506.2560 -5764.1607
TCL: Setting parameter constraintScaling to 0.625
TCL: Minimizing for 100 steps
ETITLE: TS BOND ANGLE DIHED IMPRP ELECT VDW BOUNDARY MISC KINETIC TOTAL TEMP POTENTIAL TOTAL3 TEMPAVG PRESSURE GPRESSURE VOLUME PRESSAVG GPRESSAVG
ENERGY: 400 193.5164 670.1618 2900.1651 0.0000 -192353.9478 18734.6777 199.5822 0.0000 0.0000 -169655.8446 0.0000 -169655.8446 -169655.8446 0.0000 14808.3200 -26686.0072 534946.2959 14808.3200 -26686.0072
ENERGY: 420 135.0128 616.3539 2891.6690 0.0000 -192537.5284 18755.3333 212.6331 0.0000 0.0000 -169926.5263 0.0000 -169926.5263 -169926.5263 0.0000 14784.4752 -5486.6919 534946.2959 14784.4752 -5486.6919
ENERGY: 440 149.2729 645.9142 2888.3474 0.0000 -193381.9045 18972.9402 265.9410 0.0000 0.0000 -170459.4888 0.0000 -170459.4888 -170459.4888 0.0000 14735.1363 -5617.8721 534946.2959 14735.1363 -5617.8721
ENERGY: 460 146.4275 644.4521 2883.6109 0.0000 -193615.0300 19050.3712 274.9977 0.0000 0.0000 -170615.1706 0.0000 -170615.1706 -170615.1706 0.0000 14806.0942 -5592.7427 534946.2959 14806.0942 -5592.7427
ENERGY: 480 156.5941 631.9661 2881.2539 0.0000 -194108.4215 19248.3730 276.1320 0.0000 0.0000 -170914.1024 0.0000 -170914.1024 -170914.1024 0.0000 14899.9591 -5542.6695 534946.2959 14899.9591 -5542.6695
ENERGY: 500 147.0756 639.4275 2882.6305 0.0000 -195486.2037 19794.0439 303.4128 0.0000 0.0000 -171719.6134 0.0000 -171719.6134 -171719.6134 0.0000 15164.8086 -5441.7829 534946.2959 15164.8086 -5441.7829
TCL: Setting parameter constraintScaling to 0.3125
TCL: Minimizing for 100 steps
ETITLE: TS BOND ANGLE DIHED IMPRP ELECT VDW BOUNDARY MISC KINETIC TOTAL TEMP POTENTIAL TOTAL3 TEMPAVG PRESSURE GPRESSURE VOLUME PRESSAVG GPRESSAVG
ENERGY: 500 147.0756 639.4275 2882.6305 0.0000 -195486.2037 19794.0439 151.7064 0.0000 0.0000 -171871.3198 0.0000 -171871.3198 -171871.3198 0.0000 15358.2056 -26864.5072 534946.2959 15358.2056 -26864.5072
ENERGY: 520 403.0239 736.6492 2875.6459 0.0000 -196070.5666 19967.8831 183.9312 0.0000 0.0000 -171903.4334 0.0000 -171903.4334 -171903.4334 0.0000 15291.2541 -5377.8044 534946.2959 15291.2541 -5377.8044
ENERGY: 540 183.3855 694.1480 2876.1804 0.0000 -196799.9496 20222.7202 206.9840 0.0000 0.0000 -172616.5316 0.0000 -172616.5316 -172616.5316 0.0000 15394.5412 -5352.3066 534946.2959 15394.5412 -5352.3066
ENERGY: 560 293.9362 711.5473 2871.5026 0.0000 -197244.6368 20392.8080 212.3953 0.0000 0.0000 -172762.4474 0.0000 -172762.4474 -172762.4474 0.0000 15477.3788 -5324.3046 534946.2959 15477.3788 -5324.3046
ENERGY: 580 144.4893 637.8812 2868.1763 0.0000 -197822.4688 20637.9741 207.8325 0.0000 0.0000 -173326.1154 0.0000 -173326.1154 -173326.1154 0.0000 15694.3307 -5184.6221 534946.2959 15694.3307 -5184.6221
ENERGY: 600 167.3544 643.6871 2867.0561 0.0000 -198724.0360 21013.5537 220.0788 0.0000 0.0000 -173812.3058 0.0000 -173812.3058 -173812.3058 0.0000 15864.9831 -5106.8597 534946.2959 15864.9831 -5106.8597
TCL: Setting parameter constraintScaling to 0.15625
TCL: Minimizing for 100 steps
ETITLE: TS BOND ANGLE DIHED IMPRP ELECT VDW BOUNDARY MISC KINETIC TOTAL TEMP POTENTIAL TOTAL3 TEMPAVG PRESSURE GPRESSURE VOLUME PRESSAVG GPRESSAVG
ENERGY: 600 167.3544 643.6871 2867.0561 0.0000 -198724.0360 21013.5537 110.0394 0.0000 0.0000 -173922.3452 0.0000 -173922.3452 -173922.3452 0.0000 15986.9909 -27008.2002 534946.2959 15986.9909 -27008.2002
ENERGY: 620 171.2234 657.2018 2857.9909 0.0000 -199005.5335 21062.1766 123.0445 0.0000 0.0000 -174133.8963 0.0000 -174133.8963 -174133.8963 0.0000 15944.4371 -5064.2895 534946.2959 15944.4371 -5064.2895
ENERGY: 640 174.9026 677.7598 2850.7314 0.0000 -199423.7704 21209.2635 134.1642 0.0000 0.0000 -174376.9490 0.0000 -174376.9490 -174376.9490 0.0000 15959.3684 -5087.6632 534946.2959 15959.3684 -5087.6632
ENERGY: 660 196.0716 699.6029 2853.8356 0.0000 -199784.9593 21339.1461 143.3972 0.0000 0.0000 -174552.9060 0.0000 -174552.9060 -174552.9060 0.0000 16002.7068 -5095.7181 534946.2959 16002.7068 -5095.7181
ENERGY: 680 189.4141 694.9539 2851.8445 0.0000 -200024.1810 21419.8510 141.5210 0.0000 0.0000 -174726.5965 0.0000 -174726.5965 -174726.5965 0.0000 16087.0622 -5049.7056 534946.2959 16087.0622 -5049.7056
ENERGY: 700 152.3302 645.6577 2856.4555 0.0000 -200473.2503 21635.2240 138.7296 0.0000 0.0000 -175044.8532 0.0000 -175044.8532 -175044.8532 0.0000 16279.2131 -4901.3866 534946.2959 16279.2131 -4901.3866
TCL: Setting parameter constraintScaling to 0.078125
TCL: Minimizing for 100 steps
ETITLE: TS BOND ANGLE DIHED IMPRP ELECT VDW BOUNDARY MISC KINETIC TOTAL TEMP POTENTIAL TOTAL3 TEMPAVG PRESSURE GPRESSURE VOLUME PRESSAVG GPRESSAVG
ENERGY: 700 152.3302 645.6577 2856.4555 0.0000 -200473.2503 21635.2240 69.3648 0.0000 0.0000 -175114.2180 0.0000 -175114.2180 -175114.2180 0.0000 16349.4806 -27067.5977 534946.2959 16349.4806 -27067.5977
ENERGY: 720 160.5072 659.3587 2846.5667 0.0000 -200708.3425 21664.8888 75.5375 0.0000 0.0000 -175301.4836 0.0000 -175301.4836 -175301.4836 0.0000 16256.0241 -4946.5097 534946.2959 16256.0241 -4946.5097
ENERGY: 740 172.1818 666.0090 2839.3232 0.0000 -200938.2752 21750.0518 79.9447 0.0000 0.0000 -175430.7648 0.0000 -175430.7648 -175430.7648 0.0000 16289.2124 -4947.2486 534946.2959 16289.2124 -4947.2486
ENERGY: 760 164.1701 669.6660 2840.2327 0.0000 -201217.5385 21848.8107 83.6321 0.0000 0.0000 -175611.0270 0.0000 -175611.0270 -175611.0270 0.0000 16341.8522 -4928.5808 534946.2959 16341.8522 -4928.5808
ENERGY: 780 169.9958 662.1371 2842.1872 0.0000 -201349.8576 21898.0520 82.9912 0.0000 0.0000 -175694.4942 0.0000 -175694.4942 -175694.4942 0.0000 16334.2222 -4941.1104 534946.2959 16334.2222 -4941.1104
ENERGY: 800 161.3657 670.1970 2851.7691 0.0000 -201912.9454 22185.5019 83.3354 0.0000 0.0000 -175960.7763 0.0000 -175960.7763 -175960.7763 0.0000 16600.6563 -4753.5343 534946.2959 16600.6563 -4753.5343
TCL: Setting parameter constraintScaling to 0.0390625
TCL: Minimizing for 100 steps
ETITLE: TS BOND ANGLE DIHED IMPRP ELECT VDW BOUNDARY MISC KINETIC TOTAL TEMP POTENTIAL TOTAL3 TEMPAVG PRESSURE GPRESSURE VOLUME PRESSAVG GPRESSAVG
ENERGY: 800 161.3657 670.1970 2851.7691 0.0000 -201912.9454 22185.5019 41.6677 0.0000 0.0000 -176002.4440 0.0000 -176002.4440 -176002.4440 0.0000 16639.8023 -27121.9243 534946.2959 16639.8023 -27121.9243
ENERGY: 820 238.1923 709.8292 2836.0682 0.0000 -202273.5851 22263.6156 46.8813 0.0000 0.0000 -176178.9985 0.0000 -176178.9985 -176178.9985 0.0000 16598.2957 -4810.3572 534946.2959 16598.2957 -4810.3572
ENERGY: 840 177.6602 674.0348 2831.3557 0.0000 -202402.4375 22325.2551 48.1260 0.0000 0.0000 -176346.0058 0.0000 -176346.0058 -176346.0058 0.0000 16565.4115 -4825.6593 534946.2959 16565.4115 -4825.6593
ENERGY: 860 239.1280 684.6251 2830.5762 0.0000 -202865.5969 22500.3064 50.3371 0.0000 0.0000 -176560.6242 0.0000 -176560.6242 -176560.6242 0.0000 16614.7877 -4812.0085 534946.2959 16614.7877 -4812.0085
ENERGY: 880 161.0192 664.3805 2827.2835 0.0000 -202977.8663 22549.0258 49.7962 0.0000 0.0000 -176726.3611 0.0000 -176726.3611 -176726.3611 0.0000 16768.0827 -4715.9696 534946.2959 16768.0827 -4715.9696
ENERGY: 900 161.8226 655.6531 2837.4782 0.0000 -203387.3035 22759.1361 50.0938 0.0000 0.0000 -176923.1197 0.0000 -176923.1197 -176923.1197 0.0000 16879.5965 -4641.7553 534946.2959 16879.5965 -4641.7553
TCL: Setting parameter constraintScaling to 0.01953125
TCL: Minimizing for 100 steps
ETITLE: TS BOND ANGLE DIHED IMPRP ELECT VDW BOUNDARY MISC KINETIC TOTAL TEMP POTENTIAL TOTAL3 TEMPAVG PRESSURE GPRESSURE VOLUME PRESSAVG GPRESSAVG
ENERGY: 900 161.8226 655.6531 2837.4782 0.0000 -203387.3035 22759.1361 25.0469 0.0000 0.0000 -176948.1666 0.0000 -176948.1666 -176948.1666 0.0000 16901.5762 -27210.3796 534946.2959 16901.5762 -27210.3796
ENERGY: 920 211.2535 674.3289 2823.7667 0.0000 -203603.5476 22809.6749 26.5506 0.0000 0.0000 -177057.9729 0.0000 -177057.9729 -177057.9729 0.0000 16877.3060 -4667.0018 534946.2959 16877.3060 -4667.0018
ENERGY: 940 169.3353 651.9133 2820.6583 0.0000 -203716.1392 22856.2577 27.0677 0.0000 0.0000 -177190.9069 0.0000 -177190.9069 -177190.9069 0.0000 16889.3091 -4669.4147 534946.2959 16889.3091 -4669.4147
ENERGY: 960 224.0626 683.7261 2821.7808 0.0000 -204428.1730 23171.5548 29.8780 0.0000 0.0000 -177497.1709 0.0000 -177497.1709 -177497.1709 0.0000 17002.2020 -4631.7944 534946.2959 17002.2020 -4631.7944
ENERGY: 980 164.8945 663.0209 2818.3236 0.0000 -204488.9090 23192.1066 29.3262 0.0000 0.0000 -177621.2372 0.0000 -177621.2372 -177621.2372 0.0000 17082.8537 -4570.5700 534946.2959 17082.8537 -4570.5700
ENERGY: 1000 163.4294 649.4978 2819.7452 0.0000 -204683.9801 23294.1520 29.2671 0.0000 0.0000 -177727.8885 0.0000 -177727.8885 -177727.8885 0.0000 17164.3197 -4505.4590 534946.2959 17164.3197 -4505.4590
TCL: Setting parameter constraintScaling to 0
TCL: Minimizing for 5000 steps
ETITLE: TS BOND ANGLE DIHED IMPRP ELECT VDW BOUNDARY MISC KINETIC TOTAL TEMP POTENTIAL TOTAL3 TEMPAVG PRESSURE GPRESSURE VOLUME PRESSAVG GPRESSAVG
ENERGY: 1000 163.4294 649.4978 2819.7452 0.0000 -204683.9801 23294.1520 0.0000 0.0000 0.0000 -177757.1557 0.0000 -177757.1557 -177757.1557 0.0000 17188.5840 -27231.1080 534946.2959 17188.5840 -27231.1080
ENERGY: 2000 172.5958 664.3098 2801.9105 0.0000 -214740.5399 27743.2677 0.0000 0.0000 0.0000 -183358.4561 0.0000 -183358.4561 -183358.4561 0.0000 19510.6825 -3300.7517 534946.2959 19510.6825 -3300.7517
ENERGY: 3000 165.7692 662.0671 2797.8704 0.0000 -217360.1917 28826.1429 0.0000 0.0000 0.0000 -184908.3420 0.0000 -184908.3420 -184908.3420 0.0000 20087.4769 -2991.5584 534946.2959 20087.4769 -2991.5584
ENERGY: 4000 165.3324 662.2689 2790.3460 0.0000 -218712.1961 29391.8126 0.0000 0.0000 0.0000 -185702.4362 0.0000 -185702.4362 -185702.4362 0.0000 20387.3027 -2832.7891 534946.2959 20387.3027 -2832.7891
ENERGY: 5000 168.0969 663.1341 2784.8283 0.0000 -219363.5263 29646.7283 0.0000 0.0000 0.0000 -186100.7387 0.0000 -186100.7387 -186100.7387 0.0000 20515.1173 -2774.1762 534946.2959 20515.1173 -2774.1762
ENERGY: 6000 164.8986 661.8064 2783.1157 0.0000 -219898.7753 29892.6774 0.0000 0.0000 0.0000 -186396.2773 0.0000 -186396.2773 -186396.2773 0.0000 20652.8587 -2694.7496 534946.2959 20652.8587 -2694.7496
