Info: SIMULATION PARAMETERS:
Info: TIMESTEP               1
Info: NUMBER OF STEPS        0
Info: STEPS PER CYCLE        10
Info: PERIODIC CELL BASIS 1  72.449 0 0
Info: PERIODIC CELL BASIS 2  0 93.247 0
Info: PERIODIC CELL BASIS 3  0 0 79.185
Info: PERIODIC CELL CENTER   -0.248 -0.156 -0.047
Info: WRAPPING WATERS AROUND PERIODIC BOUNDARIES ON OUTPUT.
Info: WRAPPING ALL CLUSTERS AROUND PERIODIC BOUNDARIES ON OUTPUT.
Info: FIRST LDB TIMESTEP     50
Info: LAST LDB TIMESTEP     -1
Info: HOM BACKGROUND SCALING 1
Info: PME BACKGROUND SCALING 1
Info: MIN ATOMS PER PATCH    40
Info: VELOCITY FILE          ../replicas/rep49/equilibration/eq1.vel
Info: CENTER OF MASS MOVING INITIALLY? NO
Info: DIELECTRIC             1
Info: EXCLUDE                SCALED ONE-FOUR
Info: 1-4 ELECTROSTATICS SCALED BY 0.833333
Info: MODIFIED 1-4 VDW PARAMETERS WILL BE USED
Info: DCD FILENAME           ../replicas/rep49/equilibration/eq2.dcd
Info: DCD FREQUENCY          5000
Info: DCD FIRST STEP         5000
Info: DCD FILE WILL CONTAIN UNIT CELL DATA
Info: XST FILENAME           ../replicas/rep49/equilibration/eq2.xst
Info: XST FREQUENCY          5000
Info: NO VELOCITY DCD OUTPUT
Info: NO FORCE DCD OUTPUT
Info: OUTPUT FILENAME        ../replicas/rep49/equilibration/eq2
Info: RESTART FILENAME       ../replicas/rep49/equilibration/eq2.restart
Info: RESTART FREQUENCY      5000
Info: BINARY RESTART FILES WILL BE USED
Info: SWITCHING ACTIVE
Info: SWITCHING ON           10
Info: SWITCHING OFF          12
Info: PAIRLIST DISTANCE      13.5
Info: PAIRLIST SHRINK RATE   0.01
Info: PAIRLIST GROW RATE     0.01
Info: PAIRLIST TRIGGER       0.3
Info: PAIRLISTS PER CYCLE    2
Info: PAIRLISTS ENABLED
Info: MARGIN                 0.48
Info: HYDROGEN GROUP CUTOFF  2.5
Info: PATCH DIMENSION        16.48
Info: ENERGY OUTPUT STEPS    500
Info: CROSSTERM ENERGY INCLUDED IN DIHEDRAL
Info: TIMING OUTPUT STEPS    5000
Info: PRESSURE OUTPUT STEPS  500
Info: HARMONIC CONSTRAINTS ACTIVE
Info: HARMONIC CONS EXP      2
Info: HARMONIC CONS SCALING  10
Info: LANGEVIN DYNAMICS ACTIVE
Info: LANGEVIN TEMPERATURE   300
Info: LANGEVIN USING BBK INTEGRATOR
Info: LANGEVIN DAMPING COEFFICIENT IS 5 INVERSE PS
Info: LANGEVIN DYNAMICS NOT APPLIED TO HYDROGENS
Info: BERENDSEN PRESSURE COUPLING ACTIVE
Info:     TARGET PRESSURE IS 1 BAR
Info:     COMPRESSIBILITY ESTIMATE IS 4.57e-05 BAR^(-1)
Info:     RELAXATION TIME IS 100 FS
Info:     APPLIED EVERY 2 STEPS
Info:     PRESSURE CONTROL IS GROUP-BASED
Info:       CELL FLUCTUATION IS ISOTROPIC
Info: PARTICLE MESH EWALD (PME) ACTIVE
Info: PME TOLERANCE               1e-06
Info: PME EWALD COEFFICIENT       0.257952
Info: PME INTERPOLATION ORDER     4
Info: PME GRID DIMENSIONS         80 96 80
Info: PME MAXIMUM GRID SPACING    1
Info: FULL ELECTROSTATIC EVALUATION FREQUENCY      2
Info: USING VERLET I (r-RESPA) MTS SCHEME.
Info: C1 SPLITTING OF LONG RANGE ELECTROSTATICS
Info: PLACING ATOMS IN PATCHES BY HYDROGEN GROUPS
Info: RIGID BONDS TO HYDROGEN : WATER
Info:         ERROR TOLERANCE : 1e-05
Info:          MAX ITERATIONS : 100
Info: RIGID WATER USING SETTLE ALGORITHM
Info: RANDOM NUMBER SEED     1503717042
Info: USE HYDROGEN BONDS?    NO
Info: Using AMBER format force field!
Info: AMBER PARM FILE        ../build/complex.top
Info: COORDINATE PDB         ../replicas/rep49/equilibration/eq1.coor
Info: Exclusions in PARM file will be ignored!
Info: SCNB (VDW SCALING)     2
Info: USING ARITHMETIC MEAN TO COMBINE L-J SIGMA PARAMETERS
Info: SUMMARY OF PARAMETERS:
Info: 71 BONDS
Info: 145 ANGLES
Info:   145 HARMONIC
Info:   0 COSINE-BASED
Info: 76 DIHEDRAL
Info: 0 IMPROPER
Info: 0 CROSSTERM
Info: 0 VDW
Info: 190 VDW_PAIRS
Info: 0 NBTHOLE_PAIRS
Info: STRUCTURE SUMMARY:
Info: 49394 ATOMS
Info: 49448 BONDS
Info: 8698 ANGLES
Info: 18780 DIHEDRALS
Info: 0 IMPROPERS
Info: 0 CROSSTERMS
Info: 0 EXCLUSIONS
Info: 2336 CONSTRAINTS
Info: 44667 RIGID BONDS
Info: 103515 DEGREES OF FREEDOM
Info: 17225 HYDROGEN GROUPS
Info: 4 ATOMS IN LARGEST HYDROGEN GROUP
Info: 17225 MIGRATION GROUPS
Info: 4 ATOMS IN LARGEST MIGRATION GROUP
Info: TOTAL MASS = 301478 amu
Info: TOTAL CHARGE = 1.00115e-05 e
Info: MASS DENSITY = 0.935846 g/cm^3
Info: ATOM DENSITY = 0.0923345 atoms/A^3
Info: ADDED 70656 IMPLICIT EXCLUSIONS
Info: NONBONDED TABLE R-SQUARED SPACING: 0.0625
Info: NONBONDED TABLE SIZE: 769 POINTS
Info: REMOVING COM VELOCITY -0.0213959 0.000523436 -0.0101167
TCL: Running for 5000 steps
ETITLE: TS BOND ANGLE DIHED IMPRP ELECT VDW BOUNDARY MISC KINETIC TOTAL TEMP POTENTIAL TOTAL3 TEMPAVG PRESSURE GPRESSURE VOLUME PRESSAVG GPRESSAVG
ENERGY: 0 396.2384 1225.2978 2923.8285 0.0000 -212607.8575 29415.3596 0.0000 0.0000 10084.2168 -168562.9164 98.0459 -178647.1331 -168553.2109 98.0459 -2495.8656 -2603.6307 534946.2959 -2495.8656 -2603.6307
ENERGY: 1000 1280.1130 2005.3119 3115.5778 0.0000 -193756.6529 26510.8564 752.0310 0.0000 24210.5773 -135882.1855 235.3923 -160092.7628 -135844.9312 218.5538 -13.4557 4.2206 521088.6214 -14.8778 -15.1262
ENERGY: 2000 1484.8752 2112.2017 3140.3329 0.0000 -183637.4675 22848.7836 818.5607 0.0000 27922.1469 -125310.5664 271.4788 -153232.7133 -125264.7502 264.3482 3.8021 -28.5503 515163.5096 -27.6431 -27.6866
ENERGY: 3000 1514.6369 2188.1321 3119.3623 0.0000 -178986.3448 21694.2519 819.3345 0.0000 29675.2798 -119975.3473 288.5240 -149650.6271 -119926.3377 285.8746 -53.4251 0.9258 508984.6119 -26.8168 -26.8811
ENERGY: 4000 1579.8167 2195.7077 3194.6497 0.0000 -177347.2289 21223.9298 813.1694 0.0000 30190.7903 -118149.1653 293.5361 -148339.9556 -118104.8183 292.3820 -7.8130 39.2012 506343.4753 -9.0365 -8.8875
ENERGY: 5000 1577.2710 2228.5630 3158.8442 0.0000 -175872.3786 20424.5086 787.7692 0.0000 30544.1629 -117151.2597 296.9719 -147695.4226 -117106.1037 297.3480 22.9278 -29.3693 504056.7843 -10.3701 -10.5396
TCL: Setting parameter constraintScaling to 5.0
TCL: Running for 5000 steps
ETITLE: TS BOND ANGLE DIHED IMPRP ELECT VDW BOUNDARY MISC KINETIC TOTAL TEMP POTENTIAL TOTAL3 TEMPAVG PRESSURE GPRESSURE VOLUME PRESSAVG GPRESSAVG
ENERGY: 5000 1577.2710 2228.5630 3158.8442 0.0000 -175872.3786 20424.5086 393.8846 0.0000 30542.1212 -117547.1860 296.9520 -148089.3072 -117501.4027 296.9520 -15.2922 -77.0008 504056.7843 -15.2922 -77.0008
ENERGY: 6000 1595.7046 2291.6868 3178.7051 0.0000 -175603.2957 20286.2531 634.6814 0.0000 30706.4821 -116909.7827 298.5501 -147616.2648 -116858.3251 298.2204 -32.7496 -78.5067 502335.0856 -12.1070 -12.0880
ENERGY: 7000 1621.2116 2366.7776 3193.4952 0.0000 -175804.2579 20198.5309 646.8847 0.0000 31259.8052 -116517.5527 303.9299 -147777.3579 -116469.6170 299.9510 -127.1532 37.6929 502342.4525 -1.5761 -1.4479
ENERGY: 8000 1647.8679 2360.3939 3205.2228 0.0000 -175635.5410 20104.2037 638.8712 0.0000 30995.6116 -116683.3698 301.3612 -147678.9815 -116628.9170 299.9872 -108.1381 -23.9222 500907.1202 -15.1314 -15.1893
ENERGY: 9000 1631.5241 2257.5778 3179.8745 0.0000 -175320.2726 20045.9267 655.2538 0.0000 30858.1254 -116691.9904 300.0244 -147550.1158 -116649.7115 300.5008 -65.4314 -11.7680 499320.6977 -13.4928 -13.8030
ENERGY: 10000 1632.2816 2313.6919 3156.2669 0.0000 -175686.5591 20340.1837 642.7910 0.0000 30751.1313 -116850.2128 298.9842 -147601.3441 -116800.0028 301.4319 -20.5044 57.2795 499063.9674 4.5345 4.6269
TCL: Setting parameter constraintScaling to 2.5
TCL: Running for 5000 steps
ETITLE: TS BOND ANGLE DIHED IMPRP ELECT VDW BOUNDARY MISC KINETIC TOTAL TEMP POTENTIAL TOTAL3 TEMPAVG PRESSURE GPRESSURE VOLUME PRESSAVG GPRESSAVG
ENERGY: 10000 1632.2816 2313.6919 3156.2669 0.0000 -175686.5591 20340.1837 321.3955 0.0000 30749.0948 -117173.6447 298.9644 -147922.7396 -117130.6374 298.9644 -5.4589 74.7662 499063.9674 -5.4589 74.7662
ENERGY: 11000 1700.8514 2392.9073 3173.3788 0.0000 -175951.5497 20332.9831 502.7344 0.0000 30930.2189 -116918.4759 300.7254 -147848.6948 -116872.3289 299.7993 -57.8704 -69.5790 499157.1397 -1.2116 -0.9672
ENERGY: 12000 1607.0915 2351.5956 3180.1146 0.0000 -175393.2007 19998.6081 529.8832 0.0000 30890.1078 -116835.8000 300.3354 -147725.9077 -116799.4403 301.1060 -38.8281 -2.9040 499751.6648 11.3719 11.1853
ENERGY: 13000 1655.2727 2353.0953 3204.0172 0.0000 -175600.7079 20142.9248 527.5266 0.0000 30818.0112 -116899.8601 299.6344 -147717.8713 -116866.0878 300.6744 -45.1966 -78.2885 499017.9887 -4.3408 -4.8921
ENERGY: 14000 1653.0429 2344.0698 3176.8365 0.0000 -174911.6321 19736.6716 522.9527 0.0000 30823.6102 -116654.4483 299.6889 -147478.0585 -116607.2197 301.1767 -125.3211 1.8092 500273.4575 4.7642 4.6950
ENERGY: 15000 1624.4144 2345.1914 3196.7711 0.0000 -175080.6902 19833.9125 513.5262 0.0000 30749.4373 -116817.4373 298.9677 -147566.8746 -116782.2372 300.2113 -141.5362 -28.3160 500287.8713 -4.5770 -4.6459
TCL: Setting parameter constraintScaling to 1.25
TCL: Running for 5000 steps
ETITLE: TS BOND ANGLE DIHED IMPRP ELECT VDW BOUNDARY MISC KINETIC TOTAL TEMP POTENTIAL TOTAL3 TEMPAVG PRESSURE GPRESSURE VOLUME PRESSAVG GPRESSAVG
ENERGY: 15000 1624.4144 2345.1914 3196.7711 0.0000 -175080.6902 19833.9125 256.7631 0.0000 30747.3577 -117076.2800 298.9475 -147823.6377 -117031.4290 298.9475 -201.8532 -95.5256 500287.8713 -201.8532 -95.5256
ENERGY: 16000 1650.7051 2414.9043 3215.1173 0.0000 -175170.4456 19889.5534 401.5406 0.0000 31113.9519 -116484.6729 302.5118 -147598.6249 -116433.9624 301.5881 -3.6403 -25.2364 500136.4736 3.6765 3.8210
ENERGY: 17000 1667.5269 2400.6624 3222.5776 0.0000 -175676.8760 20057.5183 431.2702 0.0000 30766.1157 -117131.2048 299.1299 -147897.3205 -117083.1517 300.0573 53.9212 4.3998 499278.9221 -4.8689 -4.6361
ENERGY: 18000 1661.8853 2329.2032 3229.8506 0.0000 -175607.6664 20037.6912 413.4898 0.0000 30761.6836 -117173.8627 299.0868 -147935.5464 -117121.7448 299.8687 -40.2718 -29.8083 498485.9749 -3.0452 -2.6494
ENERGY: 19000 1594.2917 2417.7858 3201.4918 0.0000 -175975.6882 20266.6818 394.8452 0.0000 30701.6364 -117398.9556 298.5029 -148100.5920 -117349.9270 299.8978 -42.4680 79.5664 498447.6829 4.3685 4.7102
ENERGY: 20000 1671.1261 2462.9543 3177.5554 0.0000 -175690.3198 19841.4428 411.8439 0.0000 30682.0140 -117443.3834 298.3122 -148125.3974 -117411.9942 300.3447 -131.2705 -73.0989 497988.7786 2.9690 3.1158
TCL: Setting parameter constraintScaling to 0.625
TCL: Running for 5000 steps
ETITLE: TS BOND ANGLE DIHED IMPRP ELECT VDW BOUNDARY MISC KINETIC TOTAL TEMP POTENTIAL TOTAL3 TEMPAVG PRESSURE GPRESSURE VOLUME PRESSAVG GPRESSAVG
ENERGY: 20000 1671.1261 2462.9543 3177.5554 0.0000 -175690.3198 19841.4428 205.9219 0.0000 30679.9584 -117651.3609 298.2922 -148331.3193 -117607.1024 298.2922 -170.2843 -121.9978 497988.7786 -170.2843 -121.9978
ENERGY: 21000 1648.6416 2446.6734 3171.9614 0.0000 -175743.4525 20205.9223 320.9003 0.0000 30962.5571 -116986.7964 301.0398 -147949.3535 -116947.4235 300.7848 -3.3988 2.5074 497651.3024 -1.0396 -1.0925
ENERGY: 22000 1584.9917 2454.8661 3198.3213 0.0000 -175776.2729 20027.3033 323.9797 0.0000 30957.5146 -117229.2963 300.9908 -148186.8109 -117185.1094 300.7049 -26.0955 17.8579 498499.6927 -2.7064 -2.7352
ENERGY: 23000 1612.6864 2396.2563 3226.8741 0.0000 -175818.8331 20133.6354 320.6762 0.0000 30815.2407 -117313.4640 299.6075 -148128.7047 -117261.1031 298.6552 90.7502 29.4102 498155.0519 2.7658 2.2952
ENERGY: 24000 1642.1119 2375.5498 3235.7588 0.0000 -175716.0843 20081.8202 322.3979 0.0000 30659.4631 -117398.9826 298.0929 -148058.4457 -117347.8670 299.4758 -77.8495 -116.9106 498533.2580 2.6974 2.4783
ENERGY: 25000 1649.6820 2295.0100 3227.5369 0.0000 -175982.1172 20145.1903 326.5942 0.0000 30932.4203 -117405.6834 300.7468 -148338.1037 -117361.8135 298.4832 -106.8277 -34.5846 497318.2991 -4.7370 -4.6582
TCL: Setting parameter constraintScaling to 0.3125
TCL: Running for 5000 steps
ETITLE: TS BOND ANGLE DIHED IMPRP ELECT VDW BOUNDARY MISC KINETIC TOTAL TEMP POTENTIAL TOTAL3 TEMPAVG PRESSURE GPRESSURE VOLUME PRESSAVG GPRESSAVG
ENERGY: 25000 1649.6820 2295.0100 3227.5369 0.0000 -175982.1172 20145.1903 163.2971 0.0000 30930.3604 -117571.0405 300.7268 -148501.4009 -117530.6211 300.7268 -130.4522 -51.7300 497318.2991 -130.4522 -51.7300
ENERGY: 26000 1699.6021 2352.5453 3239.0013 0.0000 -175862.1596 20078.0695 244.1315 0.0000 30735.3295 -117513.4804 298.8305 -148248.8099 -117453.6520 299.1509 21.6754 70.7027 497658.2601 8.8786 8.8047
ENERGY: 27000 1627.2988 2430.7636 3206.0681 0.0000 -175502.9508 19966.0305 250.9036 0.0000 31058.6836 -116963.2027 301.9744 -148021.8862 -116912.8481 300.8868 104.9107 110.8808 498855.8105 5.6308 6.1080
ENERGY: 28000 1628.3393 2384.1162 3206.8264 0.0000 -175530.6620 20098.9195 243.6102 0.0000 30902.4078 -117066.4425 300.4550 -147968.8504 -117020.2262 299.6351 0.7109 -41.3615 498368.6177 -8.7070 -8.7350
ENERGY: 29000 1629.3001 2391.7134 3221.5242 0.0000 -176004.7072 20150.7176 266.6272 0.0000 31149.4823 -117195.3423 302.8572 -148344.8246 -117145.6664 300.0607 19.0980 61.8121 498612.3855 -2.4499 -1.8140
ENERGY: 30000 1624.0516 2445.8393 3208.3726 0.0000 -175837.7272 20112.9279 251.9799 0.0000 30939.6500 -117254.9058 300.8171 -148194.5558 -117207.6124 300.3275 -55.0302 -16.4778 498169.9501 -7.5256 -8.0595
TCL: Setting parameter constraintScaling to 0.15625
TCL: Running for 5000 steps
ETITLE: TS BOND ANGLE DIHED IMPRP ELECT VDW BOUNDARY MISC KINETIC TOTAL TEMP POTENTIAL TOTAL3 TEMPAVG PRESSURE GPRESSURE VOLUME PRESSAVG GPRESSAVG
ENERGY: 30000 1624.0516 2445.8393 3208.3726 0.0000 -175837.7272 20112.9279 125.9900 0.0000 30937.6104 -117382.9353 300.7973 -148320.5458 -117338.4918 300.7973 -50.9277 -22.1789 498169.9501 -50.9277 -22.1789
ENERGY: 31000 1656.5321 2436.6254 3214.9041 0.0000 -175626.3015 19973.7040 191.2494 0.0000 30862.9626 -117290.3238 300.0715 -148153.2865 -117251.4381 300.6902 -71.1399 -14.6247 497638.3461 -1.8270 -2.0261
ENERGY: 32000 1693.1531 2417.8831 3203.0731 0.0000 -175947.5882 20021.3044 186.5789 0.0000 30887.5345 -117538.0610 300.3104 -148425.5955 -117489.6405 300.4273 -85.1491 -26.5533 497260.6666 4.0501 4.6585
ENERGY: 33000 1671.2331 2368.2941 3231.0391 0.0000 -175475.3398 19882.4698 206.2016 0.0000 30587.5226 -117528.5795 297.3935 -148116.1020 -117479.6785 299.3871 -16.7928 -40.0594 497658.6769 4.9666 4.6571
ENERGY: 34000 1599.7778 2435.6444 3226.6412 0.0000 -175639.2454 20122.2415 196.4066 0.0000 30984.6323 -117073.9016 301.2544 -148058.5339 -117030.5953 300.6300 53.2226 125.4138 498276.3005 6.2864 6.3073
ENERGY: 35000 1639.5321 2408.3488 3199.0206 0.0000 -175889.3884 20097.4820 213.6878 0.0000 31100.7983 -117230.5188 302.3839 -148331.3171 -117184.9110 300.3241 -135.3333 -62.9974 498013.8841 -1.3186 -1.4240
TCL: Setting parameter constraintScaling to 0.078125
TCL: Running for 5000 steps
ETITLE: TS BOND ANGLE DIHED IMPRP ELECT VDW BOUNDARY MISC KINETIC TOTAL TEMP POTENTIAL TOTAL3 TEMPAVG PRESSURE GPRESSURE VOLUME PRESSAVG GPRESSAVG
ENERGY: 35000 1639.5321 2408.3488 3199.0206 0.0000 -175889.3884 20097.4820 106.8439 0.0000 31098.7615 -117339.3995 302.3641 -148438.1610 -117295.0307 302.3641 -137.7880 -64.7186 498013.8841 -137.7880 -64.7186
ENERGY: 36000 1628.2501 2401.4002 3222.2128 0.0000 -175852.9147 20180.4046 152.0868 0.0000 30895.7459 -117372.8143 300.3902 -148268.5602 -117327.6764 300.1146 38.9155 48.2174 498130.3943 3.3884 3.0575
ENERGY: 37000 1658.8530 2417.9952 3226.8645 0.0000 -175827.9826 20192.0370 143.8131 0.0000 30936.7279 -117251.6920 300.7887 -148188.4199 -117214.1232 301.1546 44.9763 6.9232 497504.7157 2.4358 2.7374
ENERGY: 38000 1631.3444 2381.9608 3214.7061 0.0000 -175946.1878 20001.1758 157.2818 0.0000 30907.8912 -117651.8277 300.5083 -148559.7190 -117602.5052 299.5229 -88.4147 -61.4079 496162.0299 -7.6609 -7.6393
ENERGY: 39000 1605.9171 2407.7520 3222.8633 0.0000 -175774.5443 20053.1502 164.0592 0.0000 30802.9125 -117517.8899 299.4876 -148320.8024 -117479.2579 299.9773 22.5269 24.5430 497550.2330 11.7663 11.9024
ENERGY: 40000 1635.8553 2413.8284 3213.1369 0.0000 -175686.4117 20036.8380 173.0553 0.0000 30842.6327 -117371.0651 299.8738 -148213.6977 -117334.9684 299.3247 85.9926 89.2859 497560.4763 -6.4917 -6.5992
TCL: Setting parameter constraintScaling to 0.0390625
TCL: Running for 5000 steps
ETITLE: TS BOND ANGLE DIHED IMPRP ELECT VDW BOUNDARY MISC KINETIC TOTAL TEMP POTENTIAL TOTAL3 TEMPAVG PRESSURE GPRESSURE VOLUME PRESSAVG GPRESSAVG
ENERGY: 40000 1635.8553 2413.8284 3213.1369 0.0000 -175686.4117 20036.8380 86.5276 0.0000 30840.5741 -117459.6513 299.8538 -148300.2254 -117419.3804 299.8538 58.8616 65.3449 497560.4763 58.8616 65.3449
ENERGY: 41000 1632.6144 2409.6550 3183.7042 0.0000 -176034.5991 20284.2272 121.1185 0.0000 30818.3829 -117584.8968 299.6380 -148403.2797 -117539.5432 300.1261 57.5143 109.6208 496471.4293 2.4136 2.2162
ENERGY: 42000 1716.3903 2453.8406 3226.1986 0.0000 -175837.2382 19934.2437 115.6628 0.0000 30950.2259 -117440.6763 300.9199 -148390.9022 -117394.8463 300.9341 -21.3019 11.1020 496995.7113 2.4871 2.6733
ENERGY: 43000 1719.4910 2497.4665 3175.8580 0.0000 -175985.4701 20065.7353 118.8991 0.0000 30932.0862 -117475.9341 300.7435 -148408.0203 -117434.1578 300.5749 -159.3437 -67.3328 497561.6245 11.0913 10.7303
ENERGY: 44000 1602.1262 2365.6142 3175.5054 0.0000 -175996.1289 20189.8538 123.0037 0.0000 30873.8546 -117666.1712 300.1774 -148540.0258 -117612.0276 300.7761 -1.5824 65.5363 496184.5851 -1.3417 -1.5285
ENERGY: 45000 1681.3980 2396.4035 3205.5648 0.0000 -175800.6944 19994.2586 134.5887 0.0000 30775.0007 -117613.4800 299.2162 -148388.4806 -117555.5213 299.6737 -94.0081 3.4595 495791.9828 -2.0874 -1.6889
TCL: Setting parameter constraintScaling to 0.01953125
TCL: Running for 5000 steps
ETITLE: TS BOND ANGLE DIHED IMPRP ELECT VDW BOUNDARY MISC KINETIC TOTAL TEMP POTENTIAL TOTAL3 TEMPAVG PRESSURE GPRESSURE VOLUME PRESSAVG GPRESSAVG
ENERGY: 45000 1681.3980 2396.4035 3205.5648 0.0000 -175800.6944 19994.2586 67.2944 0.0000 30772.9317 -117682.8434 299.1961 -148455.7750 -117638.8982 299.1961 -102.3953 -0.6529 495791.9828 -102.3953 -0.6529
ENERGY: 46000 1614.7881 2464.3022 3173.6897 0.0000 -175848.2931 19934.1855 78.5199 0.0000 30678.6067 -117904.2010 298.2790 -148582.8077 -117860.8648 299.7934 3.4369 14.7229 495164.6740 -3.8361 -4.5471
ENERGY: 47000 1646.2064 2440.8426 3214.0238 0.0000 -175906.6946 19973.8583 83.9554 0.0000 30837.7181 -117710.0901 299.8260 -148547.8082 -117669.6075 299.5401 106.2110 86.9252 494867.4786 0.0061 0.2375
ENERGY: 48000 1669.7846 2352.7410 3180.6265 0.0000 -176301.8566 20218.7255 89.3608 0.0000 30843.2952 -117947.3229 299.8803 -148790.6181 -117902.7462 299.5261 3.3238 54.8036 497002.6235 13.6738 13.6704
ENERGY: 49000 1699.3074 2422.3101 3234.9309 0.0000 -175852.2619 19837.1442 89.6130 0.0000 30626.5159 -117942.4406 297.7726 -148568.9565 -117895.3720 298.5615 -134.7005 -99.2827 495089.9825 -8.6999 -8.3707
ENERGY: 50000 1588.7871 2387.7379 3171.9830 0.0000 -175721.3645 19923.4224 87.6478 0.0000 30958.7829 -117603.0034 301.0031 -148561.7863 -117552.3342 301.2954 131.6842 117.6022 495245.8473 6.8160 6.8892
TCL: Setting parameter constraintScaling to 0
TCL: Running for 5000 steps
ETITLE: TS BOND ANGLE DIHED IMPRP ELECT VDW BOUNDARY MISC KINETIC TOTAL TEMP POTENTIAL TOTAL3 TEMPAVG PRESSURE GPRESSURE VOLUME PRESSAVG GPRESSAVG
ENERGY: 50000 1588.7871 2387.7379 3171.9830 0.0000 -175721.3645 19923.4224 0.0000 0.0000 30956.7701 -117692.6640 300.9835 -148649.4341 -117648.8131 300.9835 110.4216 97.7958 495245.8473 110.4216 97.7958
ENERGY: 51000 1678.3672 2421.6145 3193.2100 0.0000 -176122.8131 20024.8022 0.0000 0.0000 30783.6487 -118021.1704 299.3003 -148804.8191 -117977.2961 299.5826 -100.1133 -87.5636 494329.9983 1.5342 2.0681
ENERGY: 52000 1664.0705 2509.9553 3195.6312 0.0000 -176180.6952 20086.9914 0.0000 0.0000 30564.6910 -118159.3558 297.1715 -148724.0468 -118119.8041 298.6990 31.4107 -20.3005 495166.2351 -0.7963 -1.0723
ENERGY: 53000 1715.8378 2400.7295 3229.8775 0.0000 -176131.9591 20111.2516 0.0000 0.0000 30607.0895 -118067.1732 297.5837 -148674.2627 -118029.4778 298.9485 -24.2782 30.6603 496068.3181 4.0503 4.0386
ENERGY: 54000 1627.1337 2464.1404 3203.5698 0.0000 -175710.3968 19959.1237 0.0000 0.0000 30834.0461 -117622.3831 299.7903 -148456.4292 -117572.4113 299.9265 5.3501 -26.3224 497066.8044 -4.2127 -4.1964
ENERGY: 55000 1630.5618 2415.0543 3216.8621 0.0000 -176024.5600 20070.6002 0.0000 0.0000 30736.3034 -117955.1781 298.8400 -148691.4815 -117907.1684 299.7038 -72.5259 -68.9507 496160.6942 -0.8190 -0.9872
