Info: SIMULATION PARAMETERS:
Info: TIMESTEP               2
Info: NUMBER OF STEPS        0
Info: STEPS PER CYCLE        10
Info: PERIODIC CELL BASIS 1  72.449 0 0
Info: PERIODIC CELL BASIS 2  0 93.247 0
Info: PERIODIC CELL BASIS 3  0 0 79.185
Info: PERIODIC CELL CENTER   -0.248 -0.156 -0.047
Info: WRAPPING WATERS AROUND PERIODIC BOUNDARIES ON OUTPUT.
Info: WRAPPING ALL CLUSTERS AROUND PERIODIC BOUNDARIES ON OUTPUT.
Info: FIRST LDB TIMESTEP     50
Info: LAST LDB TIMESTEP     -1
Info: HOM BACKGROUND SCALING 1
Info: PME BACKGROUND SCALING 1
Info: MIN ATOMS PER PATCH    40
Info: INITIAL TEMPERATURE    0
Info: CENTER OF MASS MOVING INITIALLY? NO
Info: DIELECTRIC             1
Info: EXCLUDE                SCALED ONE-FOUR
Info: 1-4 ELECTROSTATICS SCALED BY 0.833333
Info: MODIFIED 1-4 VDW PARAMETERS WILL BE USED
Info: NO DCD TRAJECTORY OUTPUT
Info: NO EXTENDED SYSTEM TRAJECTORY OUTPUT
Info: NO VELOCITY DCD OUTPUT
Info: NO FORCE DCD OUTPUT
Info: OUTPUT FILENAME        ../replicas/rep108/equilibration/eq0
Info: NO RESTART FILE
Info: SWITCHING ACTIVE
Info: SWITCHING ON           10
Info: SWITCHING OFF          12
Info: PAIRLIST DISTANCE      13.5
Info: PAIRLIST SHRINK RATE   0.01
Info: PAIRLIST GROW RATE     0.01
Info: PAIRLIST TRIGGER       0.3
Info: PAIRLISTS PER CYCLE    2
Info: PAIRLISTS ENABLED
Info: MARGIN                 0
Info: HYDROGEN GROUP CUTOFF  2.5
Info: PATCH DIMENSION        16
Info: ENERGY OUTPUT STEPS    500
Info: CROSSTERM ENERGY INCLUDED IN DIHEDRAL
Info: TIMING OUTPUT STEPS    5000
Info: PRESSURE OUTPUT STEPS  500
Info: HARMONIC CONSTRAINTS ACTIVE
Info: HARMONIC CONS EXP      2
Info: HARMONIC CONS SCALING  10
Info: CONJUGATE GRADIENT MINIMIZATION ACTIVE
Info: LINE MINIMIZATION GOAL = 0.001
Info: BABY STEP SIZE = 0.01
Info: TINY STEP SIZE = 1e-06
Info: PARTICLE MESH EWALD (PME) ACTIVE
Info: PME TOLERANCE               1e-06
Info: PME EWALD COEFFICIENT       0.257952
Info: PME INTERPOLATION ORDER     4
Info: PME GRID DIMENSIONS         80 96 80
Info: PME MAXIMUM GRID SPACING    1
Info: FULL ELECTROSTATIC EVALUATION FREQUENCY      2
Info: USING VERLET I (r-RESPA) MTS SCHEME.
Info: C1 SPLITTING OF LONG RANGE ELECTROSTATICS
Info: PLACING ATOMS IN PATCHES BY HYDROGEN GROUPS
Info: RIGID BONDS TO HYDROGEN : ALL
Info:         ERROR TOLERANCE : 1e-05
Info:          MAX ITERATIONS : 100
Info: RIGID WATER USING SETTLE ALGORITHM
Info: RANDOM NUMBER SEED     1503691734
Info: USE HYDROGEN BONDS?    NO
Info: Using AMBER format force field!
Info: AMBER PARM FILE        ../build/complex.top
Info: COORDINATE PDB         ../build/complex.pdb
Info: Exclusions in PARM file will be ignored!
Info: SCNB (VDW SCALING)     2
Info: USING ARITHMETIC MEAN TO COMBINE L-J SIGMA PARAMETERS
Info: SUMMARY OF PARAMETERS:
Info: 71 BONDS
Info: 145 ANGLES
Info: 76 DIHEDRAL
Info: 0 IMPROPER
Info: 0 CROSSTERM
Info: 0 VDW
Info: 190 VDW_PAIRS
Info: 0 NBTHOLE_PAIRS
Info: STRUCTURE SUMMARY:
Info: 49394 ATOMS
Info: 49448 BONDS
Info: 8698 ANGLES
Info: 18780 DIHEDRALS
Info: 0 IMPROPERS
Info: 0 CROSSTERMS
Info: 0 EXCLUSIONS
Info: 2336 CONSTRAINTS
Info: 47058 RIGID BONDS
Info: 101124 DEGREES OF FREEDOM
Info: 17225 HYDROGEN GROUPS
Info: 4 ATOMS IN LARGEST HYDROGEN GROUP
Info: 17225 MIGRATION GROUPS
Info: 4 ATOMS IN LARGEST MIGRATION GROUP
Info: TOTAL MASS = 301478 amu
Info: TOTAL CHARGE = 1.00115e-05 e
Info: MASS DENSITY = 0.935846 g/cm^3
Info: ATOM DENSITY = 0.0923345 atoms/A^3
Info: ADDED 70656 IMPLICIT EXCLUSIONS
Info: NONBONDED TABLE R-SQUARED SPACING: 0.0625
Info: NONBONDED TABLE SIZE: 769 POINTS
Info: REMOVING COM VELOCITY 0 0 0
TCL: Minimizing for 100 steps
ETITLE: TS BOND ANGLE DIHED IMPRP ELECT VDW BOUNDARY MISC KINETIC TOTAL TEMP POTENTIAL TOTAL3 TEMPAVG PRESSURE GPRESSURE VOLUME PRESSAVG GPRESSAVG
ENERGY: 0 155.4176 1012.2698 2855.7272 0.0000 -154496.7912 207729.2052 0.0468 0.0000 0.0000 57255.8754 0.0000 57255.8754 57255.8754 0.0000 116350.2532 86546.1670 534946.2959 116350.2532 86546.1670
ENERGY: 20 304.7551 935.7912 2893.4663 0.0000 -158672.9405 17936.6594 143.9454 0.0000 0.0000 -136458.3231 0.0000 -136458.3231 -136458.3231 0.0000 16523.9387 -239.4558 534946.2959 16523.9387 -239.4558
ENERGY: 40 198.7442 799.5727 2896.9273 0.0000 -162811.4532 16417.9537 221.3030 0.0000 0.0000 -142276.9524 0.0000 -142276.9524 -142276.9524 0.0000 15011.2703 -2135.4698 534946.2959 15011.2703 -2135.4698
ENERGY: 60 130.5283 715.3440 2898.2166 0.0000 -167496.1563 15446.7540 315.2796 0.0000 0.0000 -147990.0338 0.0000 -147990.0338 -147990.0338 0.0000 13793.8838 -3799.3985 534946.2959 13793.8838 -3799.3985
ENERGY: 80 431.2733 765.6308 2904.3786 0.0000 -169937.5297 15121.1523 372.0122 0.0000 0.0000 -150343.0826 0.0000 -150343.0826 -150343.0826 0.0000 13270.3307 -4577.2449 534946.2959 13270.3307 -4577.2449
ENERGY: 100 129.7139 708.0649 2904.2780 0.0000 -171050.0665 15018.6535 384.2000 0.0000 0.0000 -151905.1562 0.0000 -151905.1562 -151905.1562 0.0000 13092.9128 -4843.6316 534946.2959 13092.9128 -4843.6316
TCL: Setting parameter constraintScaling to 5.0
TCL: Minimizing for 100 steps
ETITLE: TS BOND ANGLE DIHED IMPRP ELECT VDW BOUNDARY MISC KINETIC TOTAL TEMP POTENTIAL TOTAL3 TEMPAVG PRESSURE GPRESSURE VOLUME PRESSAVG GPRESSAVG
ENERGY: 100 129.7139 708.0649 2904.2780 0.0000 -171050.0665 15018.6535 192.1000 0.0000 0.0000 -152097.2562 0.0000 -152097.2562 -152097.2562 0.0000 13703.5079 -22944.4546 534946.2959 13703.5079 -22944.4546
ENERGY: 120 118.6820 680.2876 2909.9066 0.0000 -172396.3140 14830.1205 259.9549 0.0000 0.0000 -153597.3624 0.0000 -153597.3624 -153597.3624 0.0000 13320.9473 -4756.3073 534946.2959 13320.9473 -4756.3073
ENERGY: 140 109.1485 671.1470 2912.0863 0.0000 -174830.2583 14716.1439 337.7306 0.0000 0.0000 -156084.0020 0.0000 -156084.0020 -156084.0020 0.0000 12908.9593 -5423.1457 534946.2959 12908.9593 -5423.1457
ENERGY: 160 125.8530 667.1498 2914.1926 0.0000 -175967.0406 14735.1339 362.9187 0.0000 0.0000 -157161.7927 0.0000 -157161.7927 -157161.7927 0.0000 12806.8965 -5642.8963 534946.2959 12806.8965 -5642.8963
ENERGY: 180 303.5052 659.6802 2917.2965 0.0000 -177408.6975 14815.0139 395.3823 0.0000 0.0000 -158317.8194 0.0000 -158317.8194 -158317.8194 0.0000 12699.3165 -5899.9426 534946.2959 12699.3165 -5899.9426
ENERGY: 200 109.2091 628.4758 2923.3585 0.0000 -179543.9182 15071.1676 441.8841 0.0000 0.0000 -160369.8231 0.0000 -160369.8231 -160369.8231 0.0000 12659.9902 -6160.8906 534946.2959 12659.9902 -6160.8906
TCL: Setting parameter constraintScaling to 2.5
TCL: Minimizing for 100 steps
ETITLE: TS BOND ANGLE DIHED IMPRP ELECT VDW BOUNDARY MISC KINETIC TOTAL TEMP POTENTIAL TOTAL3 TEMPAVG PRESSURE GPRESSURE VOLUME PRESSAVG GPRESSAVG
ENERGY: 200 109.2091 628.4758 2923.3585 0.0000 -179543.9182 15071.1676 220.9421 0.0000 0.0000 -160590.7652 0.0000 -160590.7652 -160590.7652 0.0000 13208.4152 -25280.0393 534946.2959 13208.4152 -25280.0393
ENERGY: 220 169.0716 639.6952 2924.9543 0.0000 -180452.8136 15113.8630 291.2275 0.0000 0.0000 -161314.0021 0.0000 -161314.0021 -161314.0021 0.0000 13002.5338 -5923.3796 534946.2959 13002.5338 -5923.3796
ENERGY: 240 251.7609 643.1360 2921.4010 0.0000 -181893.9427 15358.7972 339.6021 0.0000 0.0000 -162379.2454 0.0000 -162379.2454 -162379.2454 0.0000 12963.8876 -6116.7772 534946.2959 12963.8876 -6116.7772
ENERGY: 260 174.1331 638.9675 2923.9128 0.0000 -184182.9559 15908.3283 437.7011 0.0000 0.0000 -164099.9131 0.0000 -164099.9131 -164099.9131 0.0000 13008.9939 -6315.9087 534946.2959 13008.9939 -6315.9087
ENERGY: 280 149.2328 649.0794 2918.1916 0.0000 -184718.9026 16070.6780 427.7884 0.0000 0.0000 -164503.9323 0.0000 -164503.9323 -164503.9323 0.0000 13128.5539 -6270.2727 534946.2959 13128.5539 -6270.2727
ENERGY: 300 233.4132 694.3071 2927.8295 0.0000 -186447.9534 16635.2008 426.1377 0.0000 0.0000 -165531.0651 0.0000 -165531.0651 -165531.0651 0.0000 13385.1674 -6210.1349 534946.2959 13385.1674 -6210.1349
TCL: Setting parameter constraintScaling to 1.25
TCL: Minimizing for 100 steps
ETITLE: TS BOND ANGLE DIHED IMPRP ELECT VDW BOUNDARY MISC KINETIC TOTAL TEMP POTENTIAL TOTAL3 TEMPAVG PRESSURE GPRESSURE VOLUME PRESSAVG GPRESSAVG
ENERGY: 300 233.4132 694.3071 2927.8295 0.0000 -186447.9534 16635.2008 213.0688 0.0000 0.0000 -165744.1340 0.0000 -165744.1340 -165744.1340 0.0000 13795.7415 -26297.9530 534946.2959 13795.7415 -26297.9530
ENERGY: 320 165.6293 647.8504 2910.8772 0.0000 -186876.6959 16722.1778 244.8724 0.0000 0.0000 -166185.2887 0.0000 -166185.2887 -166185.2887 0.0000 13784.9254 -5851.0026 534946.2959 13784.9254 -5851.0026
ENERGY: 340 546.2858 773.0586 2921.9058 0.0000 -188993.1628 17329.8701 397.0999 0.0000 0.0000 -167024.9426 0.0000 -167024.9426 -167024.9426 0.0000 13706.7717 -6147.8968 534946.2959 13706.7717 -6147.8968
ENERGY: 360 156.1935 661.2368 2903.4636 0.0000 -188892.5969 17319.8006 348.3413 0.0000 0.0000 -167503.5611 0.0000 -167503.5611 -167503.5611 0.0000 13846.9491 -6012.6719 534946.2959 13846.9491 -6012.6719
ENERGY: 380 138.7577 633.8757 2910.9036 0.0000 -189917.9362 17705.5049 341.7201 0.0000 0.0000 -168187.1741 0.0000 -168187.1741 -168187.1741 0.0000 14068.8809 -5908.8437 534946.2959 14068.8809 -5908.8437
ENERGY: 400 216.8536 685.5916 2905.7188 0.0000 -191834.8944 18488.5946 381.9672 0.0000 0.0000 -169156.1686 0.0000 -169156.1686 -169156.1686 0.0000 14403.5105 -5809.4819 534946.2959 14403.5105 -5809.4819
TCL: Setting parameter constraintScaling to 0.625
TCL: Minimizing for 100 steps
ETITLE: TS BOND ANGLE DIHED IMPRP ELECT VDW BOUNDARY MISC KINETIC TOTAL TEMP POTENTIAL TOTAL3 TEMPAVG PRESSURE GPRESSURE VOLUME PRESSAVG GPRESSAVG
ENERGY: 400 216.8536 685.5916 2905.7188 0.0000 -191834.8944 18488.5946 190.9836 0.0000 0.0000 -169347.1522 0.0000 -169347.1522 -169347.1522 0.0000 14700.3626 -26667.5929 534946.2959 14700.3626 -26667.5929
ENERGY: 420 140.7199 616.6768 2892.3250 0.0000 -192025.4817 18526.0676 203.0995 0.0000 0.0000 -169646.5929 0.0000 -169646.5929 -169646.5929 0.0000 14682.6367 -5531.7666 534946.2959 14682.6367 -5531.7666
ENERGY: 440 191.7932 669.0668 2889.9130 0.0000 -193089.5055 18824.9608 271.3759 0.0000 0.0000 -170242.3958 0.0000 -170242.3958 -170242.3958 0.0000 14646.5475 -5681.0499 534946.2959 14646.5475 -5681.0499
ENERGY: 460 156.2472 656.9243 2882.3389 0.0000 -193625.9764 19021.0697 291.6508 0.0000 0.0000 -170617.7455 0.0000 -170617.7455 -170617.7455 0.0000 14746.3775 -5654.2253 534946.2959 14746.3775 -5654.2253
ENERGY: 480 169.7122 643.6012 2885.4375 0.0000 -194196.6372 19274.4998 278.7109 0.0000 0.0000 -170944.6756 0.0000 -170944.6756 -170944.6756 0.0000 14906.5633 -5542.3241 534946.2959 14906.5633 -5542.3241
ENERGY: 500 156.4891 677.0845 2899.6326 0.0000 -195695.4866 19945.2350 291.8590 0.0000 0.0000 -171725.1864 0.0000 -171725.1864 -171725.1864 0.0000 15301.7294 -5337.7326 534946.2959 15301.7294 -5337.7326
TCL: Setting parameter constraintScaling to 0.3125
TCL: Minimizing for 100 steps
ETITLE: TS BOND ANGLE DIHED IMPRP ELECT VDW BOUNDARY MISC KINETIC TOTAL TEMP POTENTIAL TOTAL3 TEMPAVG PRESSURE GPRESSURE VOLUME PRESSAVG GPRESSAVG
ENERGY: 500 156.4891 677.0845 2899.6326 0.0000 -195695.4866 19945.2350 145.9295 0.0000 0.0000 -171871.1159 0.0000 -171871.1159 -171871.1159 0.0000 15495.4293 -26781.4035 534946.2959 15495.4293 -26781.4035
ENERGY: 520 165.3260 650.2350 2874.0615 0.0000 -196044.9760 19984.4062 172.0487 0.0000 0.0000 -172198.8986 0.0000 -172198.8986 -172198.8986 0.0000 15380.6988 -5279.4223 534946.2959 15380.6988 -5279.4223
ENERGY: 540 165.7875 706.4849 2881.1973 0.0000 -196512.9910 20122.6432 206.4011 0.0000 0.0000 -172430.4770 0.0000 -172430.4770 -172430.4770 0.0000 15346.1458 -5373.1088 534946.2959 15346.1458 -5373.1088
ENERGY: 560 284.6600 724.1104 2873.9055 0.0000 -196939.5297 20297.7081 193.2947 0.0000 0.0000 -172565.8510 0.0000 -172565.8510 -172565.8510 0.0000 15459.4500 -5300.3676 534946.2959 15459.4500 -5300.3676
ENERGY: 580 159.5701 651.1448 2875.8261 0.0000 -197224.6142 20415.0400 194.2243 0.0000 0.0000 -172928.8091 0.0000 -172928.8091 -172928.8091 0.0000 15592.9457 -5211.4226 534946.2959 15592.9457 -5211.4226
ENERGY: 600 152.8247 646.8454 2882.7864 0.0000 -198035.6980 20763.9095 206.7739 0.0000 0.0000 -173382.5582 0.0000 -173382.5582 -173382.5582 0.0000 15794.5034 -5100.5353 534946.2959 15794.5034 -5100.5353
TCL: Setting parameter constraintScaling to 0.15625
TCL: Minimizing for 100 steps
ETITLE: TS BOND ANGLE DIHED IMPRP ELECT VDW BOUNDARY MISC KINETIC TOTAL TEMP POTENTIAL TOTAL3 TEMPAVG PRESSURE GPRESSURE VOLUME PRESSAVG GPRESSAVG
ENERGY: 600 152.8247 646.8454 2882.7864 0.0000 -198035.6980 20763.9095 103.3869 0.0000 0.0000 -173485.9451 0.0000 -173485.9451 -173485.9451 0.0000 15912.7650 -26919.3174 534946.2959 15912.7650 -26919.3174
ENERGY: 620 156.1344 640.6041 2858.7009 0.0000 -198338.4566 20803.2505 114.6396 0.0000 0.0000 -173765.1271 0.0000 -173765.1271 -173765.1271 0.0000 15854.1427 -5081.8162 534946.2959 15854.1427 -5081.8162
ENERGY: 640 188.9304 671.3627 2860.7183 0.0000 -198962.9180 21021.3294 132.6529 0.0000 0.0000 -174087.9242 0.0000 -174087.9242 -174087.9242 0.0000 15824.9563 -5153.4913 534946.2959 15824.9563 -5153.4913
ENERGY: 660 203.8813 657.4741 2853.0059 0.0000 -199535.1742 21228.4157 141.3612 0.0000 0.0000 -174451.0361 0.0000 -174451.0361 -174451.0361 0.0000 15886.3316 -5156.6477 534946.2959 15886.3316 -5156.6477
ENERGY: 680 164.3398 635.3860 2849.5695 0.0000 -200021.9737 21433.5092 138.2648 0.0000 0.0000 -174800.9043 0.0000 -174800.9043 -174800.9043 0.0000 16109.3749 -5004.5366 534946.2959 16109.3749 -5004.5366
ENERGY: 700 145.8117 659.9775 2863.7580 0.0000 -200781.0278 21772.6789 143.7286 0.0000 0.0000 -175195.0730 0.0000 -175195.0730 -175195.0730 0.0000 16389.2491 -4843.7364 534946.2959 16389.2491 -4843.7364
TCL: Setting parameter constraintScaling to 0.078125
TCL: Minimizing for 100 steps
ETITLE: TS BOND ANGLE DIHED IMPRP ELECT VDW BOUNDARY MISC KINETIC TOTAL TEMP POTENTIAL TOTAL3 TEMPAVG PRESSURE GPRESSURE VOLUME PRESSAVG GPRESSAVG
ENERGY: 700 145.8117 659.9775 2863.7580 0.0000 -200781.0278 21772.6789 71.8643 0.0000 0.0000 -175266.9373 0.0000 -175266.9373 -175266.9373 0.0000 16461.4191 -27027.2634 534946.2959 16461.4191 -27027.2634
ENERGY: 720 165.5160 666.5800 2842.8134 0.0000 -201082.8760 21808.1901 80.7669 0.0000 0.0000 -175519.0095 0.0000 -175519.0095 -175519.0095 0.0000 16342.3367 -4912.7539 534946.2959 16342.3367 -4912.7539
ENERGY: 740 318.1136 736.0661 2845.1140 0.0000 -201463.7805 21963.7693 87.3029 0.0000 0.0000 -175513.4146 0.0000 -175513.4146 -175513.4146 0.0000 16280.8203 -4977.4247 534946.2959 16280.8203 -4977.4247
ENERGY: 760 165.4260 666.9921 2838.2916 0.0000 -201585.5971 21994.7952 87.7623 0.0000 0.0000 -175832.3300 0.0000 -175832.3300 -175832.3300 0.0000 16395.7355 -4915.7597 534946.2959 16395.7355 -4915.7597
ENERGY: 780 173.6554 667.5015 2838.8571 0.0000 -201876.5397 22126.4429 86.7952 0.0000 0.0000 -175983.2875 0.0000 -175983.2875 -175983.2875 0.0000 16510.2586 -4825.8658 534946.2959 16510.2586 -4825.8658
ENERGY: 800 157.0110 675.5156 2864.5367 0.0000 -202506.2029 22457.7386 88.1955 0.0000 0.0000 -176263.2056 0.0000 -176263.2056 -176263.2056 0.0000 16760.1414 -4665.4660 534946.2959 16760.1414 -4665.4660
TCL: Setting parameter constraintScaling to 0.0390625
TCL: Minimizing for 100 steps
ETITLE: TS BOND ANGLE DIHED IMPRP ELECT VDW BOUNDARY MISC KINETIC TOTAL TEMP POTENTIAL TOTAL3 TEMPAVG PRESSURE GPRESSURE VOLUME PRESSAVG GPRESSAVG
ENERGY: 800 157.0110 675.5156 2864.5367 0.0000 -202506.2029 22457.7386 44.0978 0.0000 0.0000 -176307.3033 0.0000 -176307.3033 -176307.3033 0.0000 16800.9802 -27104.8861 534946.2959 16800.9802 -27104.8861
ENERGY: 820 241.1204 680.7489 2832.9967 0.0000 -202753.8399 22464.5671 47.9387 0.0000 0.0000 -176486.4682 0.0000 -176486.4682 -176486.4682 0.0000 16693.2307 -4770.0277 534946.2959 16693.2307 -4770.0277
ENERGY: 840 176.2967 661.9758 2824.1049 0.0000 -202914.8980 22530.1518 49.3838 0.0000 0.0000 -176672.9849 0.0000 -176672.9849 -176672.9849 0.0000 16725.3771 -4741.7267 534946.2959 16725.3771 -4741.7267
ENERGY: 860 167.4618 663.0584 2825.7215 0.0000 -203232.0164 22660.6199 52.0119 0.0000 0.0000 -176863.1429 0.0000 -176863.1429 -176863.1429 0.0000 16757.2246 -4743.2699 534946.2959 16757.2246 -4743.2699
ENERGY: 880 163.5981 654.8152 2830.4683 0.0000 -203626.6530 22843.8027 51.7561 0.0000 0.0000 -177082.2126 0.0000 -177082.2126 -177082.2126 0.0000 16917.0230 -4636.5465 534946.2959 16917.0230 -4636.5465
ENERGY: 900 178.7613 683.4072 2839.9396 0.0000 -204306.6041 23187.8105 54.6421 0.0000 0.0000 -177362.0434 0.0000 -177362.0434 -177362.0434 0.0000 17141.1689 -4489.8124 534946.2959 17141.1689 -4489.8124
TCL: Setting parameter constraintScaling to 0.01953125
TCL: Minimizing for 100 steps
ETITLE: TS BOND ANGLE DIHED IMPRP ELECT VDW BOUNDARY MISC KINETIC TOTAL TEMP POTENTIAL TOTAL3 TEMPAVG PRESSURE GPRESSURE VOLUME PRESSAVG GPRESSAVG
ENERGY: 900 178.7613 683.4072 2839.9396 0.0000 -204306.6041 23187.8105 27.3210 0.0000 0.0000 -177389.3645 0.0000 -177389.3645 -177389.3645 0.0000 17164.5837 -27172.4573 534946.2959 17164.5837 -27172.4573
ENERGY: 920 174.7981 676.8923 2814.9722 0.0000 -204548.0772 23233.6871 29.0459 0.0000 0.0000 -177618.6815 0.0000 -177618.6815 -177618.6815 0.0000 17088.7898 -4568.1886 534946.2959 17088.7898 -4568.1886
ENERGY: 940 186.5338 682.0942 2820.2222 0.0000 -204988.6445 23428.1297 31.3841 0.0000 0.0000 -177840.2804 0.0000 -177840.2804 -177840.2804 0.0000 17149.7733 -4551.9078 534946.2959 17149.7733 -4551.9078
ENERGY: 960 168.3837 664.1067 2813.5023 0.0000 -205115.4494 23475.1849 30.8882 0.0000 0.0000 -177963.3837 0.0000 -177963.3837 -177963.3837 0.0000 17215.1644 -4506.0174 534946.2959 17215.1644 -4506.0174
ENERGY: 980 224.2529 667.5924 2824.8965 0.0000 -205543.5894 23699.3475 31.4022 0.0000 0.0000 -178096.0978 0.0000 -178096.0978 -178096.0978 0.0000 17393.1047 -4389.8159 534946.2959 17393.1047 -4389.8159
ENERGY: 1000 166.6007 666.7028 2808.7810 0.0000 -205728.8803 23740.7404 32.8680 0.0000 0.0000 -178313.1873 0.0000 -178313.1873 -178313.1873 0.0000 17348.1693 -4449.6407 534946.2959 17348.1693 -4449.6407
TCL: Setting parameter constraintScaling to 0
TCL: Minimizing for 5000 steps
ETITLE: TS BOND ANGLE DIHED IMPRP ELECT VDW BOUNDARY MISC KINETIC TOTAL TEMP POTENTIAL TOTAL3 TEMPAVG PRESSURE GPRESSURE VOLUME PRESSAVG GPRESSAVG
ENERGY: 1000 166.6007 666.7028 2808.7810 0.0000 -205728.8803 23740.7404 0.0000 0.0000 0.0000 -178346.0554 0.0000 -178346.0554 -178346.0554 0.0000 17374.2060 -27294.1783 534946.2959 17374.2060 -27294.1783
ENERGY: 2000 168.7410 662.9320 2800.5292 0.0000 -214787.4673 27740.6187 0.0000 0.0000 0.0000 -183414.6464 0.0000 -183414.6464 -183414.6464 0.0000 19499.3894 -3312.7835 534946.2959 19499.3894 -3312.7835
ENERGY: 3000 167.5849 664.3296 2798.2037 0.0000 -217519.2356 28876.0982 0.0000 0.0000 0.0000 -185013.0192 0.0000 -185013.0192 -185013.0192 0.0000 20109.2512 -2979.8201 534946.2959 20109.2512 -2979.8201
ENERGY: 4000 165.5036 661.9023 2790.5251 0.0000 -218781.6641 29433.7692 0.0000 0.0000 0.0000 -185729.9640 0.0000 -185729.9640 -185729.9640 0.0000 20414.0952 -2806.7658 534946.2959 20414.0952 -2806.7658
ENERGY: 5000 165.5482 663.8074 2788.8183 0.0000 -219515.0043 29674.8423 0.0000 0.0000 0.0000 -186221.9881 0.0000 -186221.9881 -186221.9881 0.0000 20527.1514 -2770.9334 534946.2959 20527.1514 -2770.9334
ENERGY: 6000 165.1445 664.0751 2788.0086 0.0000 -219958.4127 29851.9322 0.0000 0.0000 0.0000 -186489.2523 0.0000 -186489.2523 -186489.2523 0.0000 20619.8595 -2724.0931 534946.2959 20619.8595 -2724.0931
