Info: SIMULATION PARAMETERS:
Info: TIMESTEP               2
Info: NUMBER OF STEPS        0
Info: STEPS PER CYCLE        10
Info: PERIODIC CELL BASIS 1  72.449 0 0
Info: PERIODIC CELL BASIS 2  0 93.247 0
Info: PERIODIC CELL BASIS 3  0 0 79.185
Info: PERIODIC CELL CENTER   -0.248 -0.156 -0.047
Info: WRAPPING WATERS AROUND PERIODIC BOUNDARIES ON OUTPUT.
Info: WRAPPING ALL CLUSTERS AROUND PERIODIC BOUNDARIES ON OUTPUT.
Info: FIRST LDB TIMESTEP     50
Info: LAST LDB TIMESTEP     -1
Info: HOM BACKGROUND SCALING 1
Info: PME BACKGROUND SCALING 1
Info: MIN ATOMS PER PATCH    40
Info: INITIAL TEMPERATURE    0
Info: CENTER OF MASS MOVING INITIALLY? NO
Info: DIELECTRIC             1
Info: EXCLUDE                SCALED ONE-FOUR
Info: 1-4 ELECTROSTATICS SCALED BY 0.833333
Info: MODIFIED 1-4 VDW PARAMETERS WILL BE USED
Info: NO DCD TRAJECTORY OUTPUT
Info: NO EXTENDED SYSTEM TRAJECTORY OUTPUT
Info: NO VELOCITY DCD OUTPUT
Info: NO FORCE DCD OUTPUT
Info: OUTPUT FILENAME        ../replicas/rep8/equilibration/eq0
Info: NO RESTART FILE
Info: SWITCHING ACTIVE
Info: SWITCHING ON           10
Info: SWITCHING OFF          12
Info: PAIRLIST DISTANCE      13.5
Info: PAIRLIST SHRINK RATE   0.01
Info: PAIRLIST GROW RATE     0.01
Info: PAIRLIST TRIGGER       0.3
Info: PAIRLISTS PER CYCLE    2
Info: PAIRLISTS ENABLED
Info: MARGIN                 0
Info: HYDROGEN GROUP CUTOFF  2.5
Info: PATCH DIMENSION        16
Info: ENERGY OUTPUT STEPS    500
Info: CROSSTERM ENERGY INCLUDED IN DIHEDRAL
Info: TIMING OUTPUT STEPS    5000
Info: PRESSURE OUTPUT STEPS  500
Info: HARMONIC CONSTRAINTS ACTIVE
Info: HARMONIC CONS EXP      2
Info: HARMONIC CONS SCALING  10
Info: CONJUGATE GRADIENT MINIMIZATION ACTIVE
Info: LINE MINIMIZATION GOAL = 0.001
Info: BABY STEP SIZE = 0.01
Info: TINY STEP SIZE = 1e-06
Info: PARTICLE MESH EWALD (PME) ACTIVE
Info: PME TOLERANCE               1e-06
Info: PME EWALD COEFFICIENT       0.257952
Info: PME INTERPOLATION ORDER     4
Info: PME GRID DIMENSIONS         80 96 80
Info: PME MAXIMUM GRID SPACING    1
Info: FULL ELECTROSTATIC EVALUATION FREQUENCY      2
Info: USING VERLET I (r-RESPA) MTS SCHEME.
Info: C1 SPLITTING OF LONG RANGE ELECTROSTATICS
Info: PLACING ATOMS IN PATCHES BY HYDROGEN GROUPS
Info: RIGID BONDS TO HYDROGEN : ALL
Info:         ERROR TOLERANCE : 1e-05
Info:          MAX ITERATIONS : 100
Info: RIGID WATER USING SETTLE ALGORITHM
Info: RANDOM NUMBER SEED     1503693780
Info: USE HYDROGEN BONDS?    NO
Info: Using AMBER format force field!
Info: AMBER PARM FILE        ../build/complex.top
Info: COORDINATE PDB         ../build/complex.pdb
Info: Exclusions in PARM file will be ignored!
Info: SCNB (VDW SCALING)     2
Info: USING ARITHMETIC MEAN TO COMBINE L-J SIGMA PARAMETERS
Info: SUMMARY OF PARAMETERS:
Info: 71 BONDS
Info: 145 ANGLES
Info: 76 DIHEDRAL
Info: 0 IMPROPER
Info: 0 CROSSTERM
Info: 0 VDW
Info: 190 VDW_PAIRS
Info: 0 NBTHOLE_PAIRS
Info: STRUCTURE SUMMARY:
Info: 49394 ATOMS
Info: 49448 BONDS
Info: 8698 ANGLES
Info: 18780 DIHEDRALS
Info: 0 IMPROPERS
Info: 0 CROSSTERMS
Info: 0 EXCLUSIONS
Info: 2336 CONSTRAINTS
Info: 47058 RIGID BONDS
Info: 101124 DEGREES OF FREEDOM
Info: 17225 HYDROGEN GROUPS
Info: 4 ATOMS IN LARGEST HYDROGEN GROUP
Info: 17225 MIGRATION GROUPS
Info: 4 ATOMS IN LARGEST MIGRATION GROUP
Info: TOTAL MASS = 301478 amu
Info: TOTAL CHARGE = 1.00115e-05 e
Info: MASS DENSITY = 0.935846 g/cm^3
Info: ATOM DENSITY = 0.0923345 atoms/A^3
Info: ADDED 70656 IMPLICIT EXCLUSIONS
Info: NONBONDED TABLE R-SQUARED SPACING: 0.0625
Info: NONBONDED TABLE SIZE: 769 POINTS
Info: REMOVING COM VELOCITY 0 0 0
TCL: Minimizing for 100 steps
ETITLE: TS BOND ANGLE DIHED IMPRP ELECT VDW BOUNDARY MISC KINETIC TOTAL TEMP POTENTIAL TOTAL3 TEMPAVG PRESSURE GPRESSURE VOLUME PRESSAVG GPRESSAVG
ENERGY: 0 155.4176 1012.2698 2855.7272 0.0000 -154496.7912 207729.2052 0.0468 0.0000 0.0000 57255.8754 0.0000 57255.8754 57255.8754 0.0000 116350.2532 86546.1670 534946.2959 116350.2532 86546.1670
ENERGY: 20 304.7550 935.7911 2893.4663 0.0000 -158672.9405 17936.6595 143.9454 0.0000 0.0000 -136458.3232 0.0000 -136458.3232 -136458.3232 0.0000 16523.9388 -239.4557 534946.2959 16523.9388 -239.4557
ENERGY: 40 198.7437 799.5726 2896.9273 0.0000 -162811.4535 16417.9537 221.3030 0.0000 0.0000 -142276.9533 0.0000 -142276.9533 -142276.9533 0.0000 15011.2703 -2135.4698 534946.2959 15011.2703 -2135.4698
ENERGY: 60 130.5283 715.3440 2898.2166 0.0000 -167496.1559 15446.7541 315.2796 0.0000 0.0000 -147990.0332 0.0000 -147990.0332 -147990.0332 0.0000 13793.8840 -3799.3983 534946.2959 13793.8840 -3799.3983
ENERGY: 80 431.2728 765.6308 2904.3785 0.0000 -169937.5220 15121.1533 372.0121 0.0000 0.0000 -150343.0746 0.0000 -150343.0746 -150343.0746 0.0000 13270.3325 -4577.2424 534946.2959 13270.3325 -4577.2424
ENERGY: 100 119.3881 710.0604 2905.2590 0.0000 -171259.7177 14991.7863 387.3614 0.0000 0.0000 -152145.8625 0.0000 -152145.8625 -152145.8625 0.0000 13056.2644 -4908.1741 534946.2959 13056.2644 -4908.1741
TCL: Setting parameter constraintScaling to 5.0
TCL: Minimizing for 100 steps
ETITLE: TS BOND ANGLE DIHED IMPRP ELECT VDW BOUNDARY MISC KINETIC TOTAL TEMP POTENTIAL TOTAL3 TEMPAVG PRESSURE GPRESSURE VOLUME PRESSAVG GPRESSAVG
ENERGY: 100 119.3881 710.0604 2905.2590 0.0000 -171259.7177 14991.7863 193.6807 0.0000 0.0000 -152339.5432 0.0000 -152339.5432 -152339.5432 0.0000 13672.7707 -23021.8205 534946.2959 13672.7707 -23021.8205
ENERGY: 120 108.8863 687.5854 2912.9268 0.0000 -172865.8735 14798.2711 281.1915 0.0000 0.0000 -154077.0124 0.0000 -154077.0124 -154077.0124 0.0000 13218.2561 -4906.0141 534946.2959 13218.2561 -4906.0141
ENERGY: 140 309.4736 708.8753 2913.8026 0.0000 -174236.5737 14731.4863 326.6366 0.0000 0.0000 -155246.2992 0.0000 -155246.2992 -155246.2992 0.0000 12971.5363 -5303.2218 534946.2959 12971.5363 -5303.2218
ENERGY: 160 265.0217 683.0520 2923.1616 0.0000 -176274.0379 14757.2590 382.8410 0.0000 0.0000 -157262.7026 0.0000 -157262.7026 -157262.7026 0.0000 12741.1227 -5742.9355 534946.2959 12741.1227 -5742.9355
ENERGY: 180 269.0369 744.0922 2928.5661 0.0000 -178994.3665 15023.3409 473.2481 0.0000 0.0000 -159556.0822 0.0000 -159556.0822 -159556.0822 0.0000 12521.6602 -6223.9888 534946.2959 12521.6602 -6223.9888
ENERGY: 200 238.7669 694.1098 2941.3541 0.0000 -181555.5622 15586.8887 546.2536 0.0000 0.0000 -161548.1891 0.0000 -161548.1891 -161548.1891 0.0000 12582.6346 -6431.5374 534946.2959 12582.6346 -6431.5374
TCL: Setting parameter constraintScaling to 2.5
TCL: Minimizing for 100 steps
ETITLE: TS BOND ANGLE DIHED IMPRP ELECT VDW BOUNDARY MISC KINETIC TOTAL TEMP POTENTIAL TOTAL3 TEMPAVG PRESSURE GPRESSURE VOLUME PRESSAVG GPRESSAVG
ENERGY: 200 238.7669 694.1098 2941.3541 0.0000 -181555.5622 15586.8887 273.1268 0.0000 0.0000 -161821.3159 0.0000 -161821.3159 -161821.3159 0.0000 13229.5251 -25662.2847 534946.2959 13229.5251 -25662.2847
ENERGY: 220 245.9046 677.3857 2932.9991 0.0000 -182075.1604 15471.8261 337.5436 0.0000 0.0000 -162409.5014 0.0000 -162409.5014 -162409.5014 0.0000 12971.9573 -6096.7591 534946.2959 12971.9573 -6096.7591
ENERGY: 240 154.4905 693.8459 2928.6942 0.0000 -182681.5374 15529.4020 347.1398 0.0000 0.0000 -163027.9650 0.0000 -163027.9650 -163027.9650 0.0000 13033.0455 -6139.2886 534946.2959 13033.0455 -6139.2886
ENERGY: 260 177.3332 683.2012 2920.2746 0.0000 -184291.1888 15886.6922 398.7584 0.0000 0.0000 -164224.9292 0.0000 -164224.9292 -164224.9292 0.0000 13054.5010 -6280.9145 534946.2959 13054.5010 -6280.9145
ENERGY: 280 169.4018 701.0087 2917.6169 0.0000 -185425.3801 16230.1026 454.8012 0.0000 0.0000 -164952.4488 0.0000 -164952.4488 -164952.4488 0.0000 13144.1964 -6344.9806 534946.2959 13144.1964 -6344.9806
ENERGY: 300 126.6679 639.5701 2916.2591 0.0000 -186097.1235 16446.9438 481.3812 0.0000 0.0000 -165486.3012 0.0000 -165486.3012 -165486.3012 0.0000 13208.3023 -6349.2703 534946.2959 13208.3023 -6349.2703
TCL: Setting parameter constraintScaling to 1.25
TCL: Minimizing for 100 steps
ETITLE: TS BOND ANGLE DIHED IMPRP ELECT VDW BOUNDARY MISC KINETIC TOTAL TEMP POTENTIAL TOTAL3 TEMPAVG PRESSURE GPRESSURE VOLUME PRESSAVG GPRESSAVG
ENERGY: 300 126.6679 639.5701 2916.2591 0.0000 -186097.1235 16446.9438 240.6906 0.0000 0.0000 -165726.9918 0.0000 -165726.9918 -165726.9918 0.0000 13656.6640 -26359.5274 534946.2959 13656.6640 -26359.5274
ENERGY: 320 132.1794 624.5990 2911.1471 0.0000 -186668.5382 16580.8895 272.7831 0.0000 0.0000 -166146.9400 0.0000 -166146.9400 -166146.9400 0.0000 13630.1684 -5980.7990 534946.2959 13630.1684 -5980.7990
ENERGY: 340 151.5131 624.8797 2910.6949 0.0000 -187374.8878 16810.3698 296.0346 0.0000 0.0000 -166581.3956 0.0000 -166581.3956 -166581.3956 0.0000 13646.8092 -6018.4275 534946.2959 13646.8092 -6018.4275
ENERGY: 360 303.7906 691.6021 2906.9780 0.0000 -189081.9091 17400.2325 364.0310 0.0000 0.0000 -167415.2748 0.0000 -167415.2748 -167415.2748 0.0000 13889.7339 -6010.9691 534946.2959 13889.7339 -6010.9691
ENERGY: 380 180.6662 658.4295 2901.5810 0.0000 -189944.7083 17742.4731 383.7213 0.0000 0.0000 -168077.8372 0.0000 -168077.8372 -168077.8372 0.0000 13977.3262 -5992.6300 534946.2959 13977.3262 -5992.6300
ENERGY: 400 139.5891 633.9359 2899.5733 0.0000 -190516.8095 17949.2187 397.0923 0.0000 0.0000 -168497.4003 0.0000 -168497.4003 -168497.4003 0.0000 14128.5121 -5926.6886 534946.2959 14128.5121 -5926.6886
TCL: Setting parameter constraintScaling to 0.625
TCL: Minimizing for 100 steps
ETITLE: TS BOND ANGLE DIHED IMPRP ELECT VDW BOUNDARY MISC KINETIC TOTAL TEMP POTENTIAL TOTAL3 TEMPAVG PRESSURE GPRESSURE VOLUME PRESSAVG GPRESSAVG
ENERGY: 400 139.5891 633.9359 2899.5733 0.0000 -190516.8095 17949.2187 198.5461 0.0000 0.0000 -168695.9464 0.0000 -168695.9464 -168695.9464 0.0000 14427.7032 -26620.0154 534946.2959 14427.7032 -26620.0154
ENERGY: 420 146.7278 626.8834 2895.4492 0.0000 -190918.1523 18039.6872 220.0028 0.0000 0.0000 -168989.4019 0.0000 -168989.4019 -168989.4019 0.0000 14355.4915 -5727.0845 534946.2959 14355.4915 -5727.0845
ENERGY: 440 144.5236 634.0530 2891.4718 0.0000 -191333.2108 18170.3545 230.4512 0.0000 0.0000 -169262.3567 0.0000 -169262.3567 -169262.3567 0.0000 14427.4235 -5713.5894 534946.2959 14427.4235 -5713.5894
ENERGY: 460 193.8326 670.3779 2890.6373 0.0000 -192534.8623 18582.6126 268.6907 0.0000 0.0000 -169928.7112 0.0000 -169928.7112 -169928.7112 0.0000 14621.2513 -5686.5069 534946.2959 14621.2513 -5686.5069
ENERGY: 480 152.0073 641.9489 2883.6860 0.0000 -192903.6506 18731.7899 272.0190 0.0000 0.0000 -170222.1995 0.0000 -170222.1995 -170222.1995 0.0000 14623.7603 -5686.6261 534946.2959 14623.7603 -5686.6261
ENERGY: 500 209.1309 669.6582 2885.3043 0.0000 -193710.9549 19030.6614 295.2460 0.0000 0.0000 -170620.9541 0.0000 -170620.9541 -170620.9541 0.0000 14736.9352 -5661.8202 534946.2959 14736.9352 -5661.8202
TCL: Setting parameter constraintScaling to 0.3125
TCL: Minimizing for 100 steps
ETITLE: TS BOND ANGLE DIHED IMPRP ELECT VDW BOUNDARY MISC KINETIC TOTAL TEMP POTENTIAL TOTAL3 TEMPAVG PRESSURE GPRESSURE VOLUME PRESSAVG GPRESSAVG
ENERGY: 500 209.1309 669.6582 2885.3043 0.0000 -193710.9549 19030.6614 147.6230 0.0000 0.0000 -170768.5771 0.0000 -170768.5771 -170768.5771 0.0000 14928.4107 -26869.5194 534946.2959 14928.4107 -26869.5194
ENERGY: 520 148.9613 645.4051 2878.0135 0.0000 -193875.5554 19090.7016 151.3220 0.0000 0.0000 -170961.1519 0.0000 -170961.1519 -170961.1519 0.0000 14955.8921 -5461.6440 534946.2959 14955.8921 -5461.6440
ENERGY: 540 189.6527 693.4089 2869.6447 0.0000 -194828.5526 19435.5956 179.5353 0.0000 0.0000 -171460.7153 0.0000 -171460.7153 -171460.7153 0.0000 15074.1903 -5455.0674 534946.2959 15074.1903 -5455.0674
ENERGY: 560 180.1586 670.1113 2876.3349 0.0000 -196141.7062 19949.5106 220.8055 0.0000 0.0000 -172244.7853 0.0000 -172244.7853 -172244.7853 0.0000 15213.1467 -5449.9059 534946.2959 15213.1467 -5449.9059
ENERGY: 580 172.4105 667.4740 2866.4752 0.0000 -196440.4726 20082.2302 218.4433 0.0000 0.0000 -172433.4394 0.0000 -172433.4394 -172433.4394 0.0000 15352.2138 -5363.1080 534946.2959 15352.2138 -5363.1080
ENERGY: 600 182.0741 673.5283 2870.5032 0.0000 -197056.7229 20331.3494 214.4352 0.0000 0.0000 -172784.8328 0.0000 -172784.8328 -172784.8328 0.0000 15494.7360 -5287.2848 534946.2959 15494.7360 -5287.2848
TCL: Setting parameter constraintScaling to 0.15625
TCL: Minimizing for 100 steps
ETITLE: TS BOND ANGLE DIHED IMPRP ELECT VDW BOUNDARY MISC KINETIC TOTAL TEMP POTENTIAL TOTAL3 TEMPAVG PRESSURE GPRESSURE VOLUME PRESSAVG GPRESSAVG
ENERGY: 600 182.0741 673.5283 2870.5032 0.0000 -197056.7229 20331.3494 107.2176 0.0000 0.0000 -172892.0503 0.0000 -172892.0503 -172892.0503 0.0000 15615.6673 -26980.3271 534946.2959 15615.6673 -26980.3271
ENERGY: 620 205.1229 666.3018 2865.3076 0.0000 -197250.3490 20374.5626 114.6048 0.0000 0.0000 -173024.4494 0.0000 -173024.4494 -173024.4494 0.0000 15587.0877 -5210.9261 534946.2959 15587.0877 -5210.9261
ENERGY: 640 337.9878 741.1406 2862.1778 0.0000 -198046.3608 20677.1766 132.4528 0.0000 0.0000 -173295.4252 0.0000 -173295.4252 -173295.4252 0.0000 15701.2257 -5199.9827 534946.2959 15701.2257 -5199.9827
ENERGY: 660 161.3040 655.2700 2857.1514 0.0000 -197921.9608 20609.3868 127.5155 0.0000 0.0000 -173511.3330 0.0000 -173511.3330 -173511.3330 0.0000 15667.4818 -5205.8581 534946.2959 15667.4818 -5205.8581
ENERGY: 680 179.1773 669.7778 2861.3627 0.0000 -198330.5041 20776.3923 128.9427 0.0000 0.0000 -173714.8513 0.0000 -173714.8513 -173714.8513 0.0000 15794.0967 -5139.9589 534946.2959 15794.0967 -5139.9589
ENERGY: 700 155.0447 681.1870 2861.8689 0.0000 -198808.3328 20983.6386 131.9139 0.0000 0.0000 -173994.6797 0.0000 -173994.6797 -173994.6797 0.0000 15911.3466 -5078.4468 534946.2959 15911.3466 -5078.4468
TCL: Setting parameter constraintScaling to 0.078125
TCL: Minimizing for 100 steps
ETITLE: TS BOND ANGLE DIHED IMPRP ELECT VDW BOUNDARY MISC KINETIC TOTAL TEMP POTENTIAL TOTAL3 TEMPAVG PRESSURE GPRESSURE VOLUME PRESSAVG GPRESSAVG
ENERGY: 700 155.0447 681.1870 2861.8689 0.0000 -198808.3328 20983.6386 65.9570 0.0000 0.0000 -174060.6367 0.0000 -174060.6367 -174060.6367 0.0000 15980.1193 -27029.0298 534946.2959 15980.1193 -27029.0298
ENERGY: 720 185.5145 658.8392 2849.9348 0.0000 -198998.3106 21010.4067 69.7528 0.0000 0.0000 -174223.8625 0.0000 -174223.8625 -174223.8625 0.0000 15944.7155 -5063.4232 534946.2959 15944.7155 -5063.4232
ENERGY: 740 171.1731 665.7665 2847.5052 0.0000 -199260.8340 21102.2178 74.3125 0.0000 0.0000 -174399.8588 0.0000 -174399.8588 -174399.8588 0.0000 15963.0362 -5060.7051 534946.2959 15963.0362 -5060.7051
ENERGY: 760 185.9672 682.0381 2846.3277 0.0000 -199900.2343 21348.5982 82.5329 0.0000 0.0000 -174754.7702 0.0000 -174754.7702 -174754.7702 0.0000 16054.1460 -5058.0398 534946.2959 16054.1460 -5058.0398
ENERGY: 780 165.0694 665.4788 2839.8233 0.0000 -200344.0721 21499.1832 85.2978 0.0000 0.0000 -175089.2196 0.0000 -175089.2196 -175089.2196 0.0000 16158.5433 -5014.1172 534946.2959 16158.5433 -5014.1172
ENERGY: 800 177.8435 650.7333 2838.6958 0.0000 -200523.7522 21575.8160 84.7739 0.0000 0.0000 -175195.8896 0.0000 -175195.8896 -175195.8896 0.0000 16194.5804 -4974.0120 534946.2959 16194.5804 -4974.0120
TCL: Setting parameter constraintScaling to 0.0390625
TCL: Minimizing for 100 steps
ETITLE: TS BOND ANGLE DIHED IMPRP ELECT VDW BOUNDARY MISC KINETIC TOTAL TEMP POTENTIAL TOTAL3 TEMPAVG PRESSURE GPRESSURE VOLUME PRESSAVG GPRESSAVG
ENERGY: 800 177.8435 650.7333 2838.6958 0.0000 -200523.7522 21575.8160 42.3870 0.0000 0.0000 -175238.2766 0.0000 -175238.2766 -175238.2766 0.0000 16234.2190 -27182.4676 534946.2959 16234.2190 -27182.4676
ENERGY: 820 159.9297 657.7117 2837.3584 0.0000 -200640.2094 21609.5665 43.0508 0.0000 0.0000 -175332.5923 0.0000 -175332.5923 -175332.5923 0.0000 16268.3957 -4936.4422 534946.2959 16268.3957 -4936.4422
ENERGY: 840 181.7519 674.7549 2835.4243 0.0000 -200953.3265 21731.1386 44.7426 0.0000 0.0000 -175485.5142 0.0000 -175485.5142 -175485.5142 0.0000 16291.6292 -4938.2519 534946.2959 16291.6292 -4938.2519
ENERGY: 860 247.4015 694.5991 2836.6110 0.0000 -201076.8879 21777.6192 45.2623 0.0000 0.0000 -175475.3948 0.0000 -175475.3948 -175475.3948 0.0000 16337.8167 -4914.5988 534946.2959 16337.8167 -4914.5988
ENERGY: 880 197.8409 660.7369 2834.4978 0.0000 -201317.2026 21874.2981 46.3108 0.0000 0.0000 -175703.5181 0.0000 -175703.5181 -175703.5181 0.0000 16365.7048 -4903.4245 534946.2959 16365.7048 -4903.4245
ENERGY: 900 167.3233 683.1456 2834.1109 0.0000 -202030.5880 22171.0509 49.7396 0.0000 0.0000 -176125.2179 0.0000 -176125.2179 -176125.2179 0.0000 16552.4452 -4819.7488 534946.2959 16552.4452 -4819.7488
TCL: Setting parameter constraintScaling to 0.01953125
TCL: Minimizing for 100 steps
ETITLE: TS BOND ANGLE DIHED IMPRP ELECT VDW BOUNDARY MISC KINETIC TOTAL TEMP POTENTIAL TOTAL3 TEMPAVG PRESSURE GPRESSURE VOLUME PRESSAVG GPRESSAVG
ENERGY: 900 167.3233 683.1456 2834.1109 0.0000 -202030.5880 22171.0509 24.8698 0.0000 0.0000 -176150.0877 0.0000 -176150.0877 -176150.0877 0.0000 16574.2997 -27206.0624 534946.2959 16574.2997 -27206.0624
ENERGY: 920 178.6870 671.3729 2827.1427 0.0000 -202226.0808 22231.4926 25.5718 0.0000 0.0000 -176291.8137 0.0000 -176291.8137 -176291.8137 0.0000 16589.5417 -4800.5813 534946.2959 16589.5417 -4800.5813
ENERGY: 940 185.2166 670.8484 2824.7765 0.0000 -202409.1487 22307.6243 26.0927 0.0000 0.0000 -176394.5902 0.0000 -176394.5902 -176394.5902 0.0000 16600.7811 -4799.2514 534946.2959 16600.7811 -4799.2514
ENERGY: 960 162.9990 658.2151 2824.3141 0.0000 -202734.6793 22432.6224 26.9428 0.0000 0.0000 -176629.5859 0.0000 -176629.5859 -176629.5859 0.0000 16685.8207 -4760.6013 534946.2959 16685.8207 -4760.6013
ENERGY: 980 273.3139 704.0088 2836.4036 0.0000 -203267.6239 22670.0049 28.0678 0.0000 0.0000 -176755.8249 0.0000 -176755.8249 -176755.8249 0.0000 16823.8235 -4695.4892 534946.2959 16823.8235 -4695.4892
ENERGY: 1000 166.6687 660.0520 2820.7089 0.0000 -203657.1831 22831.5239 29.1936 0.0000 0.0000 -177149.0360 0.0000 -177149.0360 -177149.0360 0.0000 16884.9298 -4661.4677 534946.2959 16884.9298 -4661.4677
TCL: Setting parameter constraintScaling to 0
TCL: Minimizing for 5000 steps
ETITLE: TS BOND ANGLE DIHED IMPRP ELECT VDW BOUNDARY MISC KINETIC TOTAL TEMP POTENTIAL TOTAL3 TEMPAVG PRESSURE GPRESSURE VOLUME PRESSAVG GPRESSAVG
ENERGY: 1000 166.6687 660.0520 2820.7089 0.0000 -203657.1831 22831.5239 0.0000 0.0000 0.0000 -177178.2296 0.0000 -177178.2296 -177178.2296 0.0000 16909.2815 -27260.5448 534946.2959 16909.2815 -27260.5448
ENERGY: 2000 169.1537 663.0900 2800.8471 0.0000 -214156.1859 27464.2129 0.0000 0.0000 0.0000 -183058.8821 0.0000 -183058.8821 -183058.8821 0.0000 19355.2419 -3391.0377 534946.2959 19355.2419 -3391.0377
ENERGY: 3000 168.1460 671.4967 2793.0350 0.0000 -217178.7965 28762.6821 0.0000 0.0000 0.0000 -184783.4367 0.0000 -184783.4367 -184783.4367 0.0000 20042.7805 -2993.6623 534946.2959 20042.7805 -2993.6623
ENERGY: 4000 166.3879 665.3355 2783.5661 0.0000 -218766.9080 29408.6265 0.0000 0.0000 0.0000 -185742.9919 0.0000 -185742.9919 -185742.9919 0.0000 20381.1998 -2827.3817 534946.2959 20381.1998 -2827.3817
ENERGY: 5000 165.8151 664.9275 2780.3756 0.0000 -219398.1380 29653.5103 0.0000 0.0000 0.0000 -186133.5096 0.0000 -186133.5096 -186133.5096 0.0000 20508.3499 -2762.3127 534946.2959 20508.3499 -2762.3127
ENERGY: 6000 165.8968 666.0140 2778.0479 0.0000 -219835.7037 29801.4233 0.0000 0.0000 0.0000 -186424.3217 0.0000 -186424.3217 -186424.3217 0.0000 20577.4045 -2738.8635 534946.2959 20577.4045 -2738.8635
