Info: SIMULATION PARAMETERS:
Info: TIMESTEP               2
Info: NUMBER OF STEPS        0
Info: STEPS PER CYCLE        10
Info: PERIODIC CELL BASIS 1  72.449 0 0
Info: PERIODIC CELL BASIS 2  0 93.247 0
Info: PERIODIC CELL BASIS 3  0 0 79.185
Info: PERIODIC CELL CENTER   -0.248 -0.156 -0.047
Info: WRAPPING WATERS AROUND PERIODIC BOUNDARIES ON OUTPUT.
Info: WRAPPING ALL CLUSTERS AROUND PERIODIC BOUNDARIES ON OUTPUT.
Info: FIRST LDB TIMESTEP     50
Info: LAST LDB TIMESTEP     -1
Info: HOM BACKGROUND SCALING 1
Info: PME BACKGROUND SCALING 1
Info: MIN ATOMS PER PATCH    40
Info: INITIAL TEMPERATURE    0
Info: CENTER OF MASS MOVING INITIALLY? NO
Info: DIELECTRIC             1
Info: EXCLUDE                SCALED ONE-FOUR
Info: 1-4 ELECTROSTATICS SCALED BY 0.833333
Info: MODIFIED 1-4 VDW PARAMETERS WILL BE USED
Info: NO DCD TRAJECTORY OUTPUT
Info: NO EXTENDED SYSTEM TRAJECTORY OUTPUT
Info: NO VELOCITY DCD OUTPUT
Info: NO FORCE DCD OUTPUT
Info: OUTPUT FILENAME        ../replicas/rep14/equilibration/eq0
Info: NO RESTART FILE
Info: SWITCHING ACTIVE
Info: SWITCHING ON           10
Info: SWITCHING OFF          12
Info: PAIRLIST DISTANCE      13.5
Info: PAIRLIST SHRINK RATE   0.01
Info: PAIRLIST GROW RATE     0.01
Info: PAIRLIST TRIGGER       0.3
Info: PAIRLISTS PER CYCLE    2
Info: PAIRLISTS ENABLED
Info: MARGIN                 0
Info: HYDROGEN GROUP CUTOFF  2.5
Info: PATCH DIMENSION        16
Info: ENERGY OUTPUT STEPS    500
Info: CROSSTERM ENERGY INCLUDED IN DIHEDRAL
Info: TIMING OUTPUT STEPS    5000
Info: PRESSURE OUTPUT STEPS  500
Info: HARMONIC CONSTRAINTS ACTIVE
Info: HARMONIC CONS EXP      2
Info: HARMONIC CONS SCALING  10
Info: CONJUGATE GRADIENT MINIMIZATION ACTIVE
Info: LINE MINIMIZATION GOAL = 0.001
Info: BABY STEP SIZE = 0.01
Info: TINY STEP SIZE = 1e-06
Info: PARTICLE MESH EWALD (PME) ACTIVE
Info: PME TOLERANCE               1e-06
Info: PME EWALD COEFFICIENT       0.257952
Info: PME INTERPOLATION ORDER     4
Info: PME GRID DIMENSIONS         80 96 80
Info: PME MAXIMUM GRID SPACING    1
Info: FULL ELECTROSTATIC EVALUATION FREQUENCY      2
Info: USING VERLET I (r-RESPA) MTS SCHEME.
Info: C1 SPLITTING OF LONG RANGE ELECTROSTATICS
Info: PLACING ATOMS IN PATCHES BY HYDROGEN GROUPS
Info: RIGID BONDS TO HYDROGEN : ALL
Info:         ERROR TOLERANCE : 1e-05
Info:          MAX ITERATIONS : 100
Info: RIGID WATER USING SETTLE ALGORITHM
Info: RANDOM NUMBER SEED     1503691534
Info: USE HYDROGEN BONDS?    NO
Info: Using AMBER format force field!
Info: AMBER PARM FILE        ../build/complex.top
Info: COORDINATE PDB         ../build/complex.pdb
Info: Exclusions in PARM file will be ignored!
Info: SCNB (VDW SCALING)     2
Info: USING ARITHMETIC MEAN TO COMBINE L-J SIGMA PARAMETERS
Info: SUMMARY OF PARAMETERS:
Info: 71 BONDS
Info: 145 ANGLES
Info: 76 DIHEDRAL
Info: 0 IMPROPER
Info: 0 CROSSTERM
Info: 0 VDW
Info: 190 VDW_PAIRS
Info: 0 NBTHOLE_PAIRS
Info: STRUCTURE SUMMARY:
Info: 49394 ATOMS
Info: 49448 BONDS
Info: 8698 ANGLES
Info: 18780 DIHEDRALS
Info: 0 IMPROPERS
Info: 0 CROSSTERMS
Info: 0 EXCLUSIONS
Info: 2336 CONSTRAINTS
Info: 47058 RIGID BONDS
Info: 101124 DEGREES OF FREEDOM
Info: 17225 HYDROGEN GROUPS
Info: 4 ATOMS IN LARGEST HYDROGEN GROUP
Info: 17225 MIGRATION GROUPS
Info: 4 ATOMS IN LARGEST MIGRATION GROUP
Info: TOTAL MASS = 301478 amu
Info: TOTAL CHARGE = 1.00115e-05 e
Info: MASS DENSITY = 0.935846 g/cm^3
Info: ATOM DENSITY = 0.0923345 atoms/A^3
Info: ADDED 70656 IMPLICIT EXCLUSIONS
Info: NONBONDED TABLE R-SQUARED SPACING: 0.0625
Info: NONBONDED TABLE SIZE: 769 POINTS
Info: REMOVING COM VELOCITY 0 0 0
TCL: Minimizing for 100 steps
ETITLE: TS BOND ANGLE DIHED IMPRP ELECT VDW BOUNDARY MISC KINETIC TOTAL TEMP POTENTIAL TOTAL3 TEMPAVG PRESSURE GPRESSURE VOLUME PRESSAVG GPRESSAVG
ENERGY: 0 155.4176 1012.2698 2855.7272 0.0000 -154496.7909 207729.2052 0.0468 0.0000 0.0000 57255.8757 0.0000 57255.8757 57255.8757 0.0000 116350.2532 86546.1670 534946.2959 116350.2532 86546.1670
ENERGY: 20 304.7565 935.7913 2893.4663 0.0000 -158672.9416 17936.6589 143.9455 0.0000 0.0000 -136458.3232 0.0000 -136458.3232 -136458.3232 0.0000 16523.9381 -239.4565 534946.2959 16523.9381 -239.4565
ENERGY: 40 198.7459 799.5730 2896.9273 0.0000 -162811.4521 16417.9539 221.3030 0.0000 0.0000 -142276.9490 0.0000 -142276.9490 -142276.9490 0.0000 15011.2705 -2135.4695 534946.2959 15011.2705 -2135.4695
ENERGY: 60 130.5282 715.3440 2898.2166 0.0000 -167496.1568 15446.7539 315.2796 0.0000 0.0000 -147990.0345 0.0000 -147990.0345 -147990.0345 0.0000 13793.8837 -3799.3986 534946.2959 13793.8837 -3799.3986
ENERGY: 80 431.2712 765.6303 2904.3787 0.0000 -169937.5319 15121.1521 372.0123 0.0000 0.0000 -150343.0873 0.0000 -150343.0873 -150343.0873 0.0000 13270.3303 -4577.2451 534946.2959 13270.3303 -4577.2451
ENERGY: 100 119.3844 710.0598 2905.2592 0.0000 -171259.7116 14991.7869 387.3613 0.0000 0.0000 -152145.8599 0.0000 -152145.8599 -152145.8599 0.0000 13056.2657 -4908.1717 534946.2959 13056.2657 -4908.1717
TCL: Setting parameter constraintScaling to 5.0
TCL: Minimizing for 100 steps
ETITLE: TS BOND ANGLE DIHED IMPRP ELECT VDW BOUNDARY MISC KINETIC TOTAL TEMP POTENTIAL TOTAL3 TEMPAVG PRESSURE GPRESSURE VOLUME PRESSAVG GPRESSAVG
ENERGY: 100 119.3844 710.0598 2905.2592 0.0000 -171259.7116 14991.7869 193.6807 0.0000 0.0000 -152339.5406 0.0000 -152339.5406 -152339.5406 0.0000 13672.7718 -23021.8183 534946.2959 13672.7718 -23021.8183
ENERGY: 120 108.8804 687.5831 2912.9265 0.0000 -172865.8908 14798.2704 281.1918 0.0000 0.0000 -154077.0385 0.0000 -154077.0385 -154077.0385 0.0000 13218.2539 -4906.0185 534946.2959 13218.2539 -4906.0185
ENERGY: 140 309.3875 708.8605 2913.8024 0.0000 -174236.7509 14731.4773 326.6416 0.0000 0.0000 -155246.5816 0.0000 -155246.5816 -155246.5816 0.0000 12971.5195 -5303.2604 534946.2959 12971.5195 -5303.2604
ENERGY: 160 265.4335 683.1738 2923.1853 0.0000 -176276.4233 14757.4009 382.9298 0.0000 0.0000 -157264.3000 0.0000 -157264.3000 -157264.3000 0.0000 12740.8207 -5742.7786 534946.2959 12740.8207 -5742.7786
ENERGY: 180 268.7633 744.0996 2928.5660 0.0000 -178996.2062 15023.6485 473.3439 0.0000 0.0000 -159557.7849 0.0000 -159557.7849 -159557.7849 0.0000 12521.5604 -6223.5120 534946.2959 12521.5604 -6223.5120
ENERGY: 200 239.0311 694.0762 2941.3711 0.0000 -181556.9003 15587.1983 546.2780 0.0000 0.0000 -161548.9456 0.0000 -161548.9456 -161548.9456 0.0000 12582.6559 -6419.9628 534946.2959 12582.6559 -6419.9628
TCL: Setting parameter constraintScaling to 2.5
TCL: Minimizing for 100 steps
ETITLE: TS BOND ANGLE DIHED IMPRP ELECT VDW BOUNDARY MISC KINETIC TOTAL TEMP POTENTIAL TOTAL3 TEMPAVG PRESSURE GPRESSURE VOLUME PRESSAVG GPRESSAVG
ENERGY: 200 239.0311 694.0762 2941.3711 0.0000 -181556.9003 15587.1983 273.1390 0.0000 0.0000 -161822.0845 0.0000 -161822.0845 -161822.0845 0.0000 13229.5791 -25650.8206 534946.2959 13229.5791 -25650.8206
ENERGY: 220 251.1242 679.8458 2933.0255 0.0000 -182083.0183 15471.1393 338.5148 0.0000 0.0000 -162409.3687 0.0000 -162409.3687 -162409.3687 0.0000 12968.2288 -6089.9413 534946.2959 12968.2288 -6089.9413
ENERGY: 240 139.3408 665.7901 2928.6083 0.0000 -182462.6281 15494.3901 343.5530 0.0000 0.0000 -162890.9458 0.0000 -162890.9458 -162890.9458 0.0000 13034.4318 -6102.9852 534946.2959 13034.4318 -6102.9852
ENERGY: 260 164.2888 683.7861 2921.5912 0.0000 -183941.0255 15800.0102 385.5425 0.0000 0.0000 -163985.8067 0.0000 -163985.8067 -163985.8067 0.0000 13031.7177 -6242.1904 534946.2959 13031.7177 -6242.1904
ENERGY: 280 168.9422 700.8286 2917.5898 0.0000 -185421.3952 16228.0887 454.9011 0.0000 0.0000 -164951.0448 0.0000 -164951.0448 -164951.0448 0.0000 13142.9667 -6334.6146 534946.2959 13142.9667 -6334.6146
ENERGY: 300 126.6810 639.5250 2916.2466 0.0000 -186093.2576 16445.1040 481.3860 0.0000 0.0000 -165484.3150 0.0000 -165484.3150 -165484.3150 0.0000 13207.3700 -6339.0799 534946.2959 13207.3700 -6339.0799
TCL: Setting parameter constraintScaling to 1.25
TCL: Minimizing for 100 steps
ETITLE: TS BOND ANGLE DIHED IMPRP ELECT VDW BOUNDARY MISC KINETIC TOTAL TEMP POTENTIAL TOTAL3 TEMPAVG PRESSURE GPRESSURE VOLUME PRESSAVG GPRESSAVG
ENERGY: 300 126.6810 639.5250 2916.2466 0.0000 -186093.2576 16445.1040 240.6930 0.0000 0.0000 -165725.0080 0.0000 -165725.0080 -165725.0080 0.0000 13655.7148 -26348.9111 534946.2959 13655.7148 -26348.9111
ENERGY: 320 266.1992 657.6624 2911.4741 0.0000 -186854.3981 16633.9975 286.7895 0.0000 0.0000 -166098.2755 0.0000 -166098.2755 -166098.2755 0.0000 13611.2609 -6005.4877 534946.2959 13611.2609 -6005.4877
ENERGY: 340 143.8677 621.0741 2910.1340 0.0000 -187430.1412 16830.2822 296.9212 0.0000 0.0000 -166627.8619 0.0000 -166627.8619 -166627.8619 0.0000 13661.3095 -6002.2476 534946.2959 13661.3095 -6002.2476
ENERGY: 360 127.3461 662.2350 2906.8939 0.0000 -188957.8648 17361.0111 350.8802 0.0000 0.0000 -167549.4984 0.0000 -167549.4984 -167549.4984 0.0000 13909.5175 -5972.0746 534946.2959 13909.5175 -5972.0746
ENERGY: 380 155.0642 637.5659 2900.8782 0.0000 -190758.7818 18079.3297 412.8394 0.0000 0.0000 -168573.1044 0.0000 -168573.1044 -168573.1044 0.0000 14092.0956 -5952.5474 534946.2959 14092.0956 -5952.5474
ENERGY: 400 144.4629 668.2583 2904.6534 0.0000 -191229.9826 18227.0090 414.0549 0.0000 0.0000 -168871.5441 0.0000 -168871.5441 -168871.5441 0.0000 14259.7587 -5877.4802 534946.2959 14259.7587 -5877.4802
TCL: Setting parameter constraintScaling to 0.625
TCL: Minimizing for 100 steps
ETITLE: TS BOND ANGLE DIHED IMPRP ELECT VDW BOUNDARY MISC KINETIC TOTAL TEMP POTENTIAL TOTAL3 TEMPAVG PRESSURE GPRESSURE VOLUME PRESSAVG GPRESSAVG
ENERGY: 400 144.4629 668.2583 2904.6534 0.0000 -191229.9826 18227.0090 207.0274 0.0000 0.0000 -169078.5715 0.0000 -169078.5715 -169078.5715 0.0000 14565.5866 -26644.4788 534946.2959 14565.5866 -26644.4788
ENERGY: 420 145.9194 637.0250 2892.4086 0.0000 -191562.5153 18306.7664 224.0391 0.0000 0.0000 -169356.3567 0.0000 -169356.3567 -169356.3567 0.0000 14523.5540 -5637.8404 534946.2959 14523.5540 -5637.8404
ENERGY: 440 211.6913 642.5738 2889.9364 0.0000 -192396.2377 18566.1893 256.5891 0.0000 0.0000 -169829.2578 0.0000 -169829.2578 -169829.2578 0.0000 14518.1744 -5704.7868 534946.2959 14518.1744 -5704.7868
ENERGY: 460 197.7882 643.0769 2880.8352 0.0000 -193881.9277 19115.0289 307.4426 0.0000 0.0000 -170737.7560 0.0000 -170737.7560 -170737.7560 0.0000 14747.3997 -5653.0044 534946.2959 14747.3997 -5653.0044
ENERGY: 480 162.0847 645.9486 2878.6794 0.0000 -194357.0150 19308.8815 308.3070 0.0000 0.0000 -171053.1136 0.0000 -171053.1136 -171053.1136 0.0000 14862.4951 -5596.5486 534946.2959 14862.4951 -5596.5486
ENERGY: 500 182.8303 664.7846 2881.3207 0.0000 -195737.7563 19923.9911 315.9395 0.0000 0.0000 -171768.8901 0.0000 -171768.8901 -171768.8901 0.0000 15240.6756 -5394.9833 534946.2959 15240.6756 -5394.9833
TCL: Setting parameter constraintScaling to 0.3125
TCL: Minimizing for 100 steps
ETITLE: TS BOND ANGLE DIHED IMPRP ELECT VDW BOUNDARY MISC KINETIC TOTAL TEMP POTENTIAL TOTAL3 TEMPAVG PRESSURE GPRESSURE VOLUME PRESSAVG GPRESSAVG
ENERGY: 500 182.8303 664.7846 2881.3207 0.0000 -195737.7564 19923.9911 157.9697 0.0000 0.0000 -171926.8598 0.0000 -171926.8598 -171926.8598 0.0000 15439.4190 -26826.1141 534946.2959 15439.4190 -26826.1141
ENERGY: 520 173.3957 657.2435 2872.8652 0.0000 -195962.1523 19951.9239 171.6062 0.0000 0.0000 -172135.1178 0.0000 -172135.1178 -172135.1178 0.0000 15379.6633 -5260.2425 534946.2959 15379.6633 -5260.2425
ENERGY: 540 255.7250 711.2224 2871.2730 0.0000 -196576.7424 20130.7904 201.4956 0.0000 0.0000 -172406.2360 0.0000 -172406.2360 -172406.2360 0.0000 15334.0472 -5377.5477 534946.2959 15334.0472 -5377.5477
ENERGY: 560 158.4954 655.7678 2867.7951 0.0000 -196871.6400 20230.6911 211.3164 0.0000 0.0000 -172747.5743 0.0000 -172747.5743 -172747.5743 0.0000 15401.0119 -5345.8505 534946.2959 15401.0119 -5345.8505
ENERGY: 580 165.1571 652.1161 2866.5278 0.0000 -197170.4880 20350.0138 207.4824 0.0000 0.0000 -172929.1909 0.0000 -172929.1909 -172929.1909 0.0000 15479.0189 -5292.3932 534946.2959 15479.0189 -5292.3932
ENERGY: 600 165.5722 657.5075 2874.6079 0.0000 -198068.5393 20778.6423 210.3482 0.0000 0.0000 -173381.8613 0.0000 -173381.8613 -173381.8613 0.0000 15785.0790 -5118.6548 534946.2959 15785.0790 -5118.6548
TCL: Setting parameter constraintScaling to 0.15625
TCL: Minimizing for 100 steps
ETITLE: TS BOND ANGLE DIHED IMPRP ELECT VDW BOUNDARY MISC KINETIC TOTAL TEMP POTENTIAL TOTAL3 TEMPAVG PRESSURE GPRESSURE VOLUME PRESSAVG GPRESSAVG
ENERGY: 600 165.5722 657.5075 2874.6079 0.0000 -198068.5393 20778.6423 105.1741 0.0000 0.0000 -173487.0354 0.0000 -173487.0354 -173487.0354 0.0000 15903.6489 -26917.4620 534946.2959 15903.6489 -26917.4620
ENERGY: 620 160.1283 660.5975 2856.1730 0.0000 -198340.7908 20796.7116 116.7596 0.0000 0.0000 -173750.4208 0.0000 -173750.4208 -173750.4208 0.0000 15841.8937 -5091.9072 534946.2959 15841.8937 -5091.9072
ENERGY: 640 177.9736 670.8906 2860.0968 0.0000 -198759.6356 20942.2716 132.1128 0.0000 0.0000 -173976.2901 0.0000 -173976.2901 -173976.2901 0.0000 15782.5581 -5162.0594 534946.2959 15782.5581 -5162.0594
ENERGY: 660 198.9968 710.9101 2854.9540 0.0000 -199557.6825 21222.2821 148.2709 0.0000 0.0000 -174422.2686 0.0000 -174422.2686 -174422.2686 0.0000 15985.6296 -5095.9851 534946.2959 15985.6296 -5095.9851
ENERGY: 680 182.5485 660.6454 2852.8242 0.0000 -199660.2135 21250.4827 146.2360 0.0000 0.0000 -174567.4766 0.0000 -174567.4766 -174567.4766 0.0000 15913.7163 -5135.7292 534946.2959 15913.7163 -5135.7292
ENERGY: 700 154.2461 641.7872 2850.1952 0.0000 -200122.3060 21493.1995 140.7901 0.0000 0.0000 -174842.0879 0.0000 -174842.0879 -174842.0879 0.0000 16153.4779 -4970.7458 534946.2959 16153.4779 -4970.7458
TCL: Setting parameter constraintScaling to 0.078125
TCL: Minimizing for 100 steps
ETITLE: TS BOND ANGLE DIHED IMPRP ELECT VDW BOUNDARY MISC KINETIC TOTAL TEMP POTENTIAL TOTAL3 TEMPAVG PRESSURE GPRESSURE VOLUME PRESSAVG GPRESSAVG
ENERGY: 700 154.2461 641.7872 2850.1952 0.0000 -200122.3060 21493.1995 70.3950 0.0000 0.0000 -174912.4829 0.0000 -174912.4829 -174912.4829 0.0000 16223.8902 -27094.6390 534946.2959 16223.8902 -27094.6390
ENERGY: 720 166.3385 652.4398 2842.8807 0.0000 -200395.0720 21529.3625 76.2570 0.0000 0.0000 -175127.7936 0.0000 -175127.7936 -175127.7936 0.0000 16178.5284 -4976.3678 534946.2959 16178.5284 -4976.3678
ENERGY: 740 186.8389 668.3667 2839.4234 0.0000 -201063.2930 21783.8542 85.2840 0.0000 0.0000 -175499.5258 0.0000 -175499.5258 -175499.5258 0.0000 16291.9177 -4950.4786 534946.2959 16291.9177 -4950.4786
ENERGY: 760 161.5873 653.3171 2832.8602 0.0000 -201608.2171 21995.0992 89.8359 0.0000 0.0000 -175875.5173 0.0000 -175875.5173 -175875.5173 0.0000 16404.4783 -4897.8676 534946.2959 16404.4783 -4897.8676
ENERGY: 780 171.8293 659.1068 2831.0081 0.0000 -202022.6807 22186.4146 90.3914 0.0000 0.0000 -176083.9304 0.0000 -176083.9304 -176083.9304 0.0000 16540.7586 -4820.3947 534946.2959 16540.7586 -4820.3947
ENERGY: 800 161.3008 652.1604 2835.6631 0.0000 -202900.0216 22595.3040 95.8543 0.0000 0.0000 -176559.7390 0.0000 -176559.7390 -176559.7390 0.0000 16756.0549 -4699.8367 534946.2959 16756.0549 -4699.8367
TCL: Setting parameter constraintScaling to 0.0390625
TCL: Minimizing for 100 steps
ETITLE: TS BOND ANGLE DIHED IMPRP ELECT VDW BOUNDARY MISC KINETIC TOTAL TEMP POTENTIAL TOTAL3 TEMPAVG PRESSURE GPRESSURE VOLUME PRESSAVG GPRESSAVG
ENERGY: 800 161.3008 652.1604 2835.6631 0.0000 -202900.0216 22595.3040 47.9272 0.0000 0.0000 -176607.6661 0.0000 -176607.6661 -176607.6661 0.0000 16798.5787 -27186.2800 534946.2959 16798.5787 -27186.2800
ENERGY: 820 257.9877 677.7363 2826.7532 0.0000 -203199.5307 22647.9388 51.7764 0.0000 0.0000 -176737.3384 0.0000 -176737.3384 -176737.3384 0.0000 16751.2768 -4723.9513 534946.2959 16751.2768 -4723.9513
ENERGY: 840 177.1190 670.5933 2823.9158 0.0000 -203560.3936 22794.1297 54.7606 0.0000 0.0000 -177039.8753 0.0000 -177039.8753 -177039.8753 0.0000 16833.3323 -4693.5962 534946.2959 16833.3323 -4693.5962
ENERGY: 860 167.1396 659.9632 2819.2056 0.0000 -203949.9623 22960.7894 56.6370 0.0000 0.0000 -177286.2275 0.0000 -177286.2275 -177286.2275 0.0000 16920.3044 -4655.4659 534946.2959 16920.3044 -4655.4659
ENERGY: 880 170.6997 655.8327 2823.6440 0.0000 -204353.4794 23178.4936 56.4384 0.0000 0.0000 -177468.3709 0.0000 -177468.3709 -177468.3709 0.0000 17068.8253 -4559.6292 534946.2959 17068.8253 -4559.6292
ENERGY: 900 167.1047 651.0327 2816.0740 0.0000 -204577.5730 23258.7735 57.6555 0.0000 0.0000 -177626.9327 0.0000 -177626.9327 -177626.9327 0.0000 17100.3092 -4549.0134 534946.2959 17100.3092 -4549.0134
TCL: Setting parameter constraintScaling to 0.01953125
TCL: Minimizing for 100 steps
ETITLE: TS BOND ANGLE DIHED IMPRP ELECT VDW BOUNDARY MISC KINETIC TOTAL TEMP POTENTIAL TOTAL3 TEMPAVG PRESSURE GPRESSURE VOLUME PRESSAVG GPRESSAVG
ENERGY: 900 167.1047 651.0327 2816.0740 0.0000 -204577.5730 23258.7735 28.8277 0.0000 0.0000 -177655.7604 0.0000 -177655.7604 -177655.7604 0.0000 17124.2272 -27262.4480 534946.2959 17124.2272 -27262.4480
ENERGY: 920 242.7149 692.6187 2815.8893 0.0000 -204793.2640 23332.4826 30.0279 0.0000 0.0000 -177679.5307 0.0000 -177679.5307 -177679.5307 0.0000 17136.9821 -4535.2317 534946.2959 17136.9821 -4535.2317
ENERGY: 940 168.8234 653.5283 2813.8096 0.0000 -205014.4919 23423.9779 30.9563 0.0000 0.0000 -177923.3964 0.0000 -177923.3964 -177923.3964 0.0000 17182.6614 -4514.5112 534946.2959 17182.6614 -4514.5112
ENERGY: 960 163.1810 654.8161 2812.1811 0.0000 -205141.6487 23478.3607 31.3156 0.0000 0.0000 -178001.7943 0.0000 -178001.7943 -178001.7943 0.0000 17221.5490 -4495.2589 534946.2959 17221.5490 -4495.2589
ENERGY: 980 204.5297 678.0897 2810.4836 0.0000 -205352.3303 23573.5861 31.7608 0.0000 0.0000 -178053.8805 0.0000 -178053.8805 -178053.8805 0.0000 17290.2596 -4460.9781 534946.2959 17290.2596 -4460.9781
ENERGY: 1000 191.1271 653.3348 2810.2237 0.0000 -205575.8397 23674.2639 32.4989 0.0000 0.0000 -178214.3912 0.0000 -178214.3912 -178214.3912 0.0000 17303.4733 -4453.4292 534946.2959 17303.4733 -4453.4292
TCL: Setting parameter constraintScaling to 0
TCL: Minimizing for 5000 steps
ETITLE: TS BOND ANGLE DIHED IMPRP ELECT VDW BOUNDARY MISC KINETIC TOTAL TEMP POTENTIAL TOTAL3 TEMPAVG PRESSURE GPRESSURE VOLUME PRESSAVG GPRESSAVG
ENERGY: 1000 191.1271 653.3348 2810.2237 0.0000 -205575.8397 23674.2639 0.0000 0.0000 0.0000 -178246.8901 0.0000 -178246.8901 -178246.8901 0.0000 17329.2046 -27291.4263 534946.2959 17329.2046 -27291.4263
ENERGY: 2000 168.5924 663.8133 2801.5750 0.0000 -214628.9698 27766.5358 0.0000 0.0000 0.0000 -183228.4532 0.0000 -183228.4532 -183228.4532 0.0000 19527.2705 -3257.0828 534946.2959 19527.2705 -3257.0828
ENERGY: 3000 167.9409 664.2553 2792.4847 0.0000 -217532.3907 28929.8506 0.0000 0.0000 0.0000 -184977.8591 0.0000 -184977.8591 -184977.8591 0.0000 20135.6290 -2960.8568 534946.2959 20135.6290 -2960.8568
ENERGY: 4000 169.0919 663.3180 2787.3821 0.0000 -218798.7733 29426.6381 0.0000 0.0000 0.0000 -185752.3432 0.0000 -185752.3432 -185752.3432 0.0000 20396.9796 -2826.4765 534946.2959 20396.9796 -2826.4765
ENERGY: 5000 166.1037 662.8679 2784.2454 0.0000 -219440.4312 29656.8551 0.0000 0.0000 0.0000 -186170.3589 0.0000 -186170.3589 -186170.3589 0.0000 20512.5218 -2774.6249 534946.2959 20512.5218 -2774.6249
ENERGY: 6000 165.8076 662.8865 2783.7258 0.0000 -219818.6200 29818.6879 0.0000 0.0000 0.0000 -186387.5122 0.0000 -186387.5122 -186387.5122 0.0000 20597.4133 -2730.5793 534946.2959 20597.4133 -2730.5793
