Info: SIMULATION PARAMETERS:
Info: TIMESTEP               1
Info: NUMBER OF STEPS        0
Info: STEPS PER CYCLE        10
Info: PERIODIC CELL BASIS 1  72.449 0 0
Info: PERIODIC CELL BASIS 2  0 93.247 0
Info: PERIODIC CELL BASIS 3  0 0 79.185
Info: PERIODIC CELL CENTER   -0.248 -0.156 -0.047
Info: WRAPPING WATERS AROUND PERIODIC BOUNDARIES ON OUTPUT.
Info: WRAPPING ALL CLUSTERS AROUND PERIODIC BOUNDARIES ON OUTPUT.
Info: FIRST LDB TIMESTEP     50
Info: LAST LDB TIMESTEP     -1
Info: HOM BACKGROUND SCALING 1
Info: PME BACKGROUND SCALING 1
Info: MIN ATOMS PER PATCH    40
Info: VELOCITY FILE          ../replicas/rep128/equilibration/eq1.vel
Info: CENTER OF MASS MOVING INITIALLY? NO
Info: DIELECTRIC             1
Info: EXCLUDE                SCALED ONE-FOUR
Info: 1-4 ELECTROSTATICS SCALED BY 0.833333
Info: MODIFIED 1-4 VDW PARAMETERS WILL BE USED
Info: DCD FILENAME           ../replicas/rep128/equilibration/eq2.dcd
Info: DCD FREQUENCY          5000
Info: DCD FIRST STEP         5000
Info: DCD FILE WILL CONTAIN UNIT CELL DATA
Info: XST FILENAME           ../replicas/rep128/equilibration/eq2.xst
Info: XST FREQUENCY          5000
Info: NO VELOCITY DCD OUTPUT
Info: NO FORCE DCD OUTPUT
Info: OUTPUT FILENAME        ../replicas/rep128/equilibration/eq2
Info: RESTART FILENAME       ../replicas/rep128/equilibration/eq2.restart
Info: RESTART FREQUENCY      5000
Info: BINARY RESTART FILES WILL BE USED
Info: SWITCHING ACTIVE
Info: SWITCHING ON           10
Info: SWITCHING OFF          12
Info: PAIRLIST DISTANCE      13.5
Info: PAIRLIST SHRINK RATE   0.01
Info: PAIRLIST GROW RATE     0.01
Info: PAIRLIST TRIGGER       0.3
Info: PAIRLISTS PER CYCLE    2
Info: PAIRLISTS ENABLED
Info: MARGIN                 0.48
Info: HYDROGEN GROUP CUTOFF  2.5
Info: PATCH DIMENSION        16.48
Info: ENERGY OUTPUT STEPS    500
Info: CROSSTERM ENERGY INCLUDED IN DIHEDRAL
Info: TIMING OUTPUT STEPS    5000
Info: PRESSURE OUTPUT STEPS  500
Info: HARMONIC CONSTRAINTS ACTIVE
Info: HARMONIC CONS EXP      2
Info: HARMONIC CONS SCALING  10
Info: LANGEVIN DYNAMICS ACTIVE
Info: LANGEVIN TEMPERATURE   300
Info: LANGEVIN USING BBK INTEGRATOR
Info: LANGEVIN DAMPING COEFFICIENT IS 5 INVERSE PS
Info: LANGEVIN DYNAMICS NOT APPLIED TO HYDROGENS
Info: BERENDSEN PRESSURE COUPLING ACTIVE
Info:     TARGET PRESSURE IS 1 BAR
Info:     COMPRESSIBILITY ESTIMATE IS 4.57e-05 BAR^(-1)
Info:     RELAXATION TIME IS 100 FS
Info:     APPLIED EVERY 2 STEPS
Info:     PRESSURE CONTROL IS GROUP-BASED
Info:       CELL FLUCTUATION IS ISOTROPIC
Info: PARTICLE MESH EWALD (PME) ACTIVE
Info: PME TOLERANCE               1e-06
Info: PME EWALD COEFFICIENT       0.257952
Info: PME INTERPOLATION ORDER     4
Info: PME GRID DIMENSIONS         80 96 80
Info: PME MAXIMUM GRID SPACING    1
Info: FULL ELECTROSTATIC EVALUATION FREQUENCY      2
Info: USING VERLET I (r-RESPA) MTS SCHEME.
Info: C1 SPLITTING OF LONG RANGE ELECTROSTATICS
Info: PLACING ATOMS IN PATCHES BY HYDROGEN GROUPS
Info: RIGID BONDS TO HYDROGEN : WATER
Info:         ERROR TOLERANCE : 1e-05
Info:          MAX ITERATIONS : 100
Info: RIGID WATER USING SETTLE ALGORITHM
Info: RANDOM NUMBER SEED     1503695465
Info: USE HYDROGEN BONDS?    NO
Info: Using AMBER format force field!
Info: AMBER PARM FILE        ../build/complex.top
Info: COORDINATE PDB         ../replicas/rep128/equilibration/eq1.coor
Info: Exclusions in PARM file will be ignored!
Info: SCNB (VDW SCALING)     2
Info: USING ARITHMETIC MEAN TO COMBINE L-J SIGMA PARAMETERS
Info: SUMMARY OF PARAMETERS:
Info: 71 BONDS
Info: 145 ANGLES
Info: 76 DIHEDRAL
Info: 0 IMPROPER
Info: 0 CROSSTERM
Info: 0 VDW
Info: 190 VDW_PAIRS
Info: 0 NBTHOLE_PAIRS
Info: STRUCTURE SUMMARY:
Info: 49394 ATOMS
Info: 49448 BONDS
Info: 8698 ANGLES
Info: 18780 DIHEDRALS
Info: 0 IMPROPERS
Info: 0 CROSSTERMS
Info: 0 EXCLUSIONS
Info: 2336 CONSTRAINTS
Info: 44667 RIGID BONDS
Info: 103515 DEGREES OF FREEDOM
Info: 17225 HYDROGEN GROUPS
Info: 4 ATOMS IN LARGEST HYDROGEN GROUP
Info: 17225 MIGRATION GROUPS
Info: 4 ATOMS IN LARGEST MIGRATION GROUP
Info: TOTAL MASS = 301478 amu
Info: TOTAL CHARGE = 1.00115e-05 e
Info: MASS DENSITY = 0.935846 g/cm^3
Info: ATOM DENSITY = 0.0923345 atoms/A^3
Info: ADDED 70656 IMPLICIT EXCLUSIONS
Info: NONBONDED TABLE R-SQUARED SPACING: 0.0625
Info: NONBONDED TABLE SIZE: 769 POINTS
Info: REMOVING COM VELOCITY 0.00252256 0.000808969 0.0111728
TCL: Running for 5000 steps
ETITLE: TS BOND ANGLE DIHED IMPRP ELECT VDW BOUNDARY MISC KINETIC TOTAL TEMP POTENTIAL TOTAL3 TEMPAVG PRESSURE GPRESSURE VOLUME PRESSAVG GPRESSAVG
ENERGY: 0 396.6987 1237.3378 2909.2945 0.0000 -212889.1164 29691.9481 0.0000 0.0000 10061.3644 -168592.4727 97.8237 -178653.8371 -168582.7775 97.8237 -2289.6541 -2390.4443 534946.2959 -2289.6541 -2390.4443
ENERGY: 1000 1275.7884 2007.8477 3121.1288 0.0000 -192998.2101 26020.2414 794.7957 0.0000 23968.8385 -135809.5697 233.0419 -159778.4082 -135768.5958 218.7715 -29.9660 -21.6208 522828.5645 -19.5200 -19.5364
ENERGY: 2000 1468.2702 2114.7816 3135.8313 0.0000 -183745.3905 23046.8907 802.4852 0.0000 27890.8545 -125286.2770 271.1745 -153177.1315 -125250.4620 263.6963 -94.2874 -76.1654 515751.0950 -12.0062 -12.3149
ENERGY: 3000 1495.7730 2241.9893 3142.4902 0.0000 -179232.3835 21744.5988 775.8520 0.0000 29522.0620 -120309.6183 287.0343 -149831.6803 -120256.8291 284.6158 -2.2128 -7.6705 510422.3971 -5.0744 -4.7026
ENERGY: 4000 1562.5420 2287.9329 3155.1364 0.0000 -176938.3541 20648.5774 817.3910 0.0000 30370.0251 -118096.7493 295.2788 -148466.7744 -118054.0103 293.7319 -0.3294 -17.9405 508183.1454 0.3795 0.6423
ENERGY: 5000 1538.6983 2267.2500 3156.5155 0.0000 -175855.2734 20317.7806 824.9328 0.0000 30729.5125 -117020.5836 298.7740 -147750.0961 -116976.0621 296.9471 -83.7048 19.6279 505063.7865 -9.2464 -9.6880
TCL: Setting parameter constraintScaling to 5.0
TCL: Running for 5000 steps
ETITLE: TS BOND ANGLE DIHED IMPRP ELECT VDW BOUNDARY MISC KINETIC TOTAL TEMP POTENTIAL TOTAL3 TEMPAVG PRESSURE GPRESSURE VOLUME PRESSAVG GPRESSAVG
ENERGY: 5000 1538.6983 2267.2500 3156.5155 0.0000 -175855.2733 20317.7806 412.4664 0.0000 30727.4727 -117435.0898 298.7541 -148162.5625 -117391.8532 298.7541 -122.0996 -19.5115 505063.7865 -122.0996 -19.5115
ENERGY: 6000 1655.3055 2249.1501 3152.6821 0.0000 -175891.1501 20481.2729 630.0230 0.0000 30773.9175 -116948.7991 299.2057 -147722.7165 -116903.8087 299.1275 7.6619 45.1298 505079.9170 8.2263 8.5733
ENERGY: 7000 1583.6965 2339.6863 3176.5251 0.0000 -175707.8261 20496.5244 666.6587 0.0000 30928.5371 -116516.1979 300.7090 -147444.7350 -116480.3904 300.5005 54.8833 54.5306 503001.3732 -6.4354 -6.6441
ENERGY: 8000 1592.3999 2283.8470 3160.7563 0.0000 -175381.5705 20061.2056 611.6337 0.0000 30788.3929 -116883.3352 299.3465 -147671.7280 -116844.4276 299.5747 -88.9525 -47.6146 502540.1766 4.7033 4.6775
ENERGY: 9000 1595.6635 2335.3979 3152.4301 0.0000 -175256.5564 20164.5750 616.2736 0.0000 30652.1613 -116740.0549 298.0219 -147392.2163 -116681.1988 299.9189 -57.3577 24.3401 501919.5329 -3.3414 -3.7644
ENERGY: 10000 1659.3373 2285.2858 3165.7106 0.0000 -175292.0229 20038.6323 644.6742 0.0000 30954.3543 -116544.0283 300.9600 -147498.3826 -116495.7853 300.2053 -17.6629 6.7266 502175.4162 9.6960 9.3545
TCL: Setting parameter constraintScaling to 2.5
TCL: Running for 5000 steps
ETITLE: TS BOND ANGLE DIHED IMPRP ELECT VDW BOUNDARY MISC KINETIC TOTAL TEMP POTENTIAL TOTAL3 TEMPAVG PRESSURE GPRESSURE VOLUME PRESSAVG GPRESSAVG
ENERGY: 10000 1659.3373 2285.2858 3165.7106 0.0000 -175292.0229 20038.6323 322.3371 0.0000 30952.2911 -116868.4286 300.9400 -147820.7197 -116829.0803 300.9400 -125.8819 -99.4951 502175.4162 -125.8819 -99.4951
ENERGY: 11000 1677.9066 2358.8497 3182.8909 0.0000 -175748.9063 20200.0513 510.5303 0.0000 30669.3101 -117149.3674 298.1886 -147818.6775 -117093.8103 300.0355 -49.5465 7.9976 499882.5645 1.1378 0.5707
ENERGY: 12000 1660.3362 2274.9798 3184.2921 0.0000 -175910.8118 20277.2222 526.9226 0.0000 30817.9465 -117169.1123 299.6338 -147987.0588 -117130.9799 299.2947 -13.2035 85.6165 499939.1551 -12.0051 -11.6076
ENERGY: 13000 1668.7929 2395.8223 3189.3353 0.0000 -175710.0507 19972.6225 510.8385 0.0000 30697.1746 -117275.4646 298.4596 -147972.6392 -117226.0190 299.1365 -150.0789 -64.8154 499788.3645 13.7282 13.1494
ENERGY: 14000 1588.3999 2360.0951 3189.9448 0.0000 -175829.3106 20018.5384 512.7445 0.0000 30895.7126 -117263.8752 300.3899 -148159.5878 -117222.9271 299.2673 -52.9293 13.3901 500010.1085 4.1373 4.1625
ENERGY: 15000 1587.3008 2337.5684 3176.6289 0.0000 -176133.9741 20385.6335 531.6442 0.0000 30921.4246 -117193.7737 300.6399 -148115.1983 -117141.5580 299.7504 -26.3990 -43.7857 499202.8700 -4.7021 -5.4235
TCL: Setting parameter constraintScaling to 1.25
TCL: Running for 5000 steps
ETITLE: TS BOND ANGLE DIHED IMPRP ELECT VDW BOUNDARY MISC KINETIC TOTAL TEMP POTENTIAL TOTAL3 TEMPAVG PRESSURE GPRESSURE VOLUME PRESSAVG GPRESSAVG
ENERGY: 15000 1587.3008 2337.5684 3176.6289 0.0000 -176133.9741 20385.6335 265.8221 0.0000 30919.3317 -117461.6887 300.6195 -148381.0204 -117419.5719 300.6195 -32.9000 -36.9873 499202.8700 -32.9000 -36.9873
ENERGY: 16000 1599.3442 2372.6148 3182.1750 0.0000 -175221.2957 19825.9423 395.2078 0.0000 30731.3758 -117114.6358 298.7921 -147846.0116 -117075.8058 299.0260 -73.7761 -71.6295 499240.0454 -5.2225 -5.7355
ENERGY: 17000 1734.5109 2409.0971 3200.5512 0.0000 -175431.2354 20087.2835 418.7247 0.0000 30931.3716 -116649.6965 300.7366 -147581.0680 -116607.0440 301.4472 -89.9293 15.9709 498951.9160 5.3955 4.6072
ENERGY: 18000 1713.6926 2360.3974 3184.4291 0.0000 -175613.9863 19845.5887 407.7128 0.0000 31031.6940 -117070.4717 301.7120 -148102.1657 -117019.5033 300.5429 -66.9453 -32.9060 498414.5072 -6.7962 -6.5300
ENERGY: 19000 1645.5916 2274.3552 3175.9671 0.0000 -175134.3166 19849.9829 406.7611 0.0000 30730.7525 -117050.9062 298.7860 -147781.6588 -117002.9888 300.0536 -106.6249 -75.3583 498412.8297 -0.9895 -0.7887
ENERGY: 20000 1648.1140 2364.8675 3179.4780 0.0000 -175495.8956 19874.1828 422.0748 0.0000 30984.5801 -117022.5984 301.2539 -148007.1785 -116969.1369 299.2769 -70.8449 9.5329 499871.6652 3.6620 3.8210
TCL: Setting parameter constraintScaling to 0.625
TCL: Running for 5000 steps
ETITLE: TS BOND ANGLE DIHED IMPRP ELECT VDW BOUNDARY MISC KINETIC TOTAL TEMP POTENTIAL TOTAL3 TEMPAVG PRESSURE GPRESSURE VOLUME PRESSAVG GPRESSAVG
ENERGY: 20000 1648.1140 2364.8675 3179.4780 0.0000 -175495.8956 19874.1828 211.0374 0.0000 30982.5300 -117235.6858 301.2340 -148218.2159 -117195.5869 301.2340 -163.1384 -84.9642 499871.6652 -163.1384 -84.9642
ENERGY: 21000 1710.9110 2421.3509 3165.1816 0.0000 -175597.1698 20008.0006 311.6028 0.0000 30726.5674 -117253.5555 298.7453 -147980.1230 -117206.8753 299.7540 44.5034 26.7878 498621.4820 -6.5261 -6.5586
ENERGY: 22000 1624.2711 2413.0635 3213.1838 0.0000 -176185.8919 20210.1314 315.0706 0.0000 30919.6856 -117490.4858 300.6230 -148410.1714 -117452.4017 299.5410 44.7623 32.1734 498429.0124 4.3513 3.9544
ENERGY: 23000 1678.3405 2359.6806 3189.0507 0.0000 -175899.3451 20104.1629 318.9824 0.0000 30735.8717 -117513.2562 298.8358 -148249.1279 -117476.5595 299.5166 -30.8448 17.9096 499362.6007 11.1923 10.9577
ENERGY: 24000 1628.0229 2399.6438 3214.0473 0.0000 -176114.6015 20371.9015 317.5725 0.0000 31018.0953 -117165.3182 301.5798 -148183.4135 -117112.2031 300.2274 27.3055 -1.3940 499351.9525 7.9363 8.0444
ENERGY: 25000 1664.3277 2294.7705 3188.9370 0.0000 -175394.2582 19836.2196 312.5987 0.0000 30843.3176 -117254.0871 299.8805 -148097.4047 -117203.6577 299.9694 5.2375 -11.3078 500065.1972 10.7928 10.6644
TCL: Setting parameter constraintScaling to 0.3125
TCL: Running for 5000 steps
ETITLE: TS BOND ANGLE DIHED IMPRP ELECT VDW BOUNDARY MISC KINETIC TOTAL TEMP POTENTIAL TOTAL3 TEMPAVG PRESSURE GPRESSURE VOLUME PRESSAVG GPRESSAVG
ENERGY: 25000 1664.3277 2294.7705 3188.9370 0.0000 -175394.2581 19836.2196 156.2994 0.0000 30841.2768 -117412.4272 299.8606 -148253.7040 -117370.1532 299.8606 -32.2116 -51.3566 500065.1972 -32.2116 -51.3566
ENERGY: 26000 1657.4624 2347.9497 3241.5901 0.0000 -175726.2873 20115.8333 248.2289 0.0000 30871.2158 -117244.0072 300.1517 -148115.2229 -117187.9888 299.6712 103.4760 4.0081 498138.0901 -8.7107 -8.9313
ENERGY: 27000 1586.6853 2473.3195 3228.3993 0.0000 -175598.1084 19999.7600 246.9171 0.0000 30675.3789 -117387.6484 298.2477 -148063.0273 -117346.0093 299.6812 -104.5226 -0.5438 499271.1608 9.0371 8.5813
ENERGY: 28000 1634.3315 2406.6084 3188.7638 0.0000 -175948.6707 20109.5621 232.6568 0.0000 30859.6320 -117517.1161 300.0391 -148376.7481 -117473.0532 299.4301 -51.7660 -78.3750 498739.7783 3.9344 3.3901
ENERGY: 29000 1596.0858 2379.4471 3213.2174 0.0000 -175507.6373 20032.0544 261.7678 0.0000 30769.2777 -117255.7871 299.1606 -148025.0648 -117197.4509 299.6449 78.2193 80.8765 498773.5891 10.3685 10.0930
ENERGY: 30000 1619.4665 2436.2215 3209.9638 0.0000 -175555.4488 19986.1643 259.2498 0.0000 30794.8722 -117249.5107 299.4095 -148044.3829 -117204.4913 299.2699 -66.6773 -7.7648 498588.0380 -0.1630 -0.7121
TCL: Setting parameter constraintScaling to 0.15625
TCL: Running for 5000 steps
ETITLE: TS BOND ANGLE DIHED IMPRP ELECT VDW BOUNDARY MISC KINETIC TOTAL TEMP POTENTIAL TOTAL3 TEMPAVG PRESSURE GPRESSURE VOLUME PRESSAVG GPRESSAVG
ENERGY: 30000 1619.4665 2436.2215 3209.9638 0.0000 -175555.4488 19986.1643 129.6249 0.0000 30792.8293 -117381.1785 299.3896 -148174.0078 -117339.0855 299.3896 -104.4175 -38.3619 498588.0380 -104.4175 -38.3619
ENERGY: 31000 1684.0697 2396.2683 3197.6410 0.0000 -175906.5791 20092.6866 201.8637 0.0000 30914.9761 -117419.0737 300.5772 -148334.0498 -117377.5965 300.5779 -196.4460 -58.5265 496676.0764 -11.4342 -11.5149
ENERGY: 32000 1632.8676 2387.8714 3226.1998 0.0000 -175509.2832 19988.5322 195.8044 0.0000 30788.0222 -117289.9855 299.3428 -148078.0077 -117253.0422 300.5991 39.7183 28.9154 496556.4911 -9.3155 -9.2303
ENERGY: 33000 1688.0151 2412.6174 3235.3421 0.0000 -175677.8245 19930.5110 223.2279 0.0000 30978.7641 -117209.3469 301.1974 -148188.1110 -117156.3541 300.3304 -202.1856 -85.4574 496093.1839 -5.0722 -4.8076
ENERGY: 34000 1672.6414 2417.4505 3220.4810 0.0000 -175775.7879 20096.2955 201.9258 0.0000 30821.3113 -117345.6824 299.6665 -148166.9937 -117308.7091 299.6957 -1.2703 18.2534 497455.7691 3.6326 3.3658
ENERGY: 35000 1631.8494 2473.6839 3237.5868 0.0000 -175314.9346 19945.6692 212.0933 0.0000 30699.2414 -117114.8106 298.4797 -147814.0520 -117076.2193 300.0941 -53.0235 32.7488 499921.9704 12.5421 12.8639
TCL: Setting parameter constraintScaling to 0.078125
TCL: Running for 5000 steps
ETITLE: TS BOND ANGLE DIHED IMPRP ELECT VDW BOUNDARY MISC KINETIC TOTAL TEMP POTENTIAL TOTAL3 TEMPAVG PRESSURE GPRESSURE VOLUME PRESSAVG GPRESSAVG
ENERGY: 35000 1631.8494 2473.6839 3237.5868 0.0000 -175314.9345 19945.6692 106.0466 0.0000 30697.1740 -117222.9245 298.4596 -147920.0986 -117179.9981 298.4596 -88.6655 2.6048 499921.9704 -88.6655 2.6048
ENERGY: 36000 1678.1566 2422.3182 3196.6315 0.0000 -175613.7206 19952.1802 149.9362 0.0000 30943.7487 -117270.7491 300.8569 -148214.4978 -117213.4668 300.0408 -88.2872 34.4193 497184.9528 -16.8038 -16.8308
ENERGY: 37000 1563.5369 2426.1415 3251.0006 0.0000 -175282.6885 19792.8730 148.9122 0.0000 30876.7137 -117223.5106 300.2052 -148100.2243 -117176.5155 300.3682 -168.3130 -41.6904 498302.6973 7.6139 7.8094
ENERGY: 38000 1587.7073 2429.8454 3209.7667 0.0000 -176252.7502 20194.8358 147.3503 0.0000 30824.1487 -117859.0959 299.6941 -148683.2446 -117814.1707 298.3434 -0.3379 12.2350 496518.2353 -5.6678 -6.1597
ENERGY: 39000 1623.5752 2382.7888 3198.8799 0.0000 -175892.7035 19968.4167 164.2915 0.0000 30885.9553 -117668.7960 300.2950 -148554.7514 -117620.2966 299.4018 -136.9243 -38.0891 496092.4566 -7.0220 -7.4873
ENERGY: 40000 1630.6599 2433.3313 3241.7010 0.0000 -175728.3808 19946.3528 164.8759 0.0000 30775.4797 -117535.9802 299.2209 -148311.4598 -117488.5416 299.9887 -35.1279 -73.5155 495336.3322 -10.6292 -10.2699
TCL: Setting parameter constraintScaling to 0.0390625
TCL: Running for 5000 steps
ETITLE: TS BOND ANGLE DIHED IMPRP ELECT VDW BOUNDARY MISC KINETIC TOTAL TEMP POTENTIAL TOTAL3 TEMPAVG PRESSURE GPRESSURE VOLUME PRESSAVG GPRESSAVG
ENERGY: 40000 1630.6599 2433.3313 3241.7010 0.0000 -175728.3808 19946.3528 82.4379 0.0000 30773.4221 -117620.4757 299.2009 -148393.8978 -117579.0553 299.2009 -48.7863 -85.7113 495336.3322 -48.7863 -85.7113
ENERGY: 41000 1602.7683 2426.9507 3187.6699 0.0000 -175768.8489 20076.8032 107.5918 0.0000 30770.8085 -117596.2565 299.1755 -148367.0650 -117556.2671 299.6583 -34.1503 -12.7662 498385.1713 19.3109 18.3256
ENERGY: 42000 1640.6919 2406.7697 3216.2663 0.0000 -175829.7491 19973.2596 108.1062 0.0000 30824.5031 -117660.1522 299.6975 -148484.6554 -117606.6960 299.4116 -16.1104 -29.0856 497040.1794 -6.7584 -6.9956
ENERGY: 43000 1625.1947 2392.7089 3179.5056 0.0000 -175419.0217 19888.7889 116.6910 0.0000 30824.5451 -117391.5876 299.6980 -148216.1327 -117346.5218 300.3331 -143.7612 -2.8902 497560.2995 -0.8561 -0.8462
ENERGY: 44000 1648.4947 2380.0650 3191.9027 0.0000 -175937.4397 20186.9336 123.7021 0.0000 30843.7493 -117562.5922 299.8847 -148406.3416 -117522.8066 300.6448 65.2226 75.0664 497899.4268 9.4509 9.6940
ENERGY: 45000 1598.7767 2421.3305 3230.0072 0.0000 -176082.9995 20045.6551 121.7427 0.0000 30852.5505 -117812.9367 299.9702 -148665.4872 -117775.2526 299.0490 128.5521 76.6760 495003.9391 -10.2430 -10.4653
TCL: Setting parameter constraintScaling to 0.01953125
TCL: Running for 5000 steps
ETITLE: TS BOND ANGLE DIHED IMPRP ELECT VDW BOUNDARY MISC KINETIC TOTAL TEMP POTENTIAL TOTAL3 TEMPAVG PRESSURE GPRESSURE VOLUME PRESSAVG GPRESSAVG
ENERGY: 45000 1598.7767 2421.3305 3230.0072 0.0000 -176082.9995 20045.6551 60.8714 0.0000 30850.5073 -117875.8513 299.9504 -148726.3586 -117833.2849 299.9504 127.3402 70.1801 495003.9391 127.3402 70.1801
ENERGY: 46000 1637.5882 2354.0887 3211.8985 0.0000 -176096.8176 20038.1191 83.0064 0.0000 30947.2240 -117824.8927 300.8907 -148772.1167 -117779.6240 299.1176 69.3701 69.9316 495805.5154 1.2878 1.7630
ENERGY: 47000 1645.4459 2409.3975 3222.2350 0.0000 -176002.8886 20104.3979 90.1325 0.0000 30786.8450 -117744.4347 299.3314 -148531.2797 -117693.0237 299.4857 -87.6776 -64.5661 497025.2418 2.9761 2.6722
ENERGY: 48000 1590.0016 2371.3591 3177.2403 0.0000 -176193.5146 20137.5892 90.5061 0.0000 30653.1781 -118173.6402 298.0318 -148826.8183 -118129.0972 298.3511 -81.6323 -43.1908 496882.4541 -4.3215 -4.3362
ENERGY: 49000 1642.6708 2431.4540 3219.9813 0.0000 -176108.8277 20159.0923 94.5626 0.0000 30648.1233 -117912.9434 297.9827 -148561.0667 -117866.7737 298.8483 6.3988 -15.0261 495867.8093 -5.0804 -5.0227
ENERGY: 50000 1636.2525 2474.8601 3209.1304 0.0000 -176271.8618 20237.9331 98.7772 0.0000 30966.2439 -117648.6646 301.0756 -148614.9086 -117603.1503 300.1865 -27.3694 -39.9972 497830.0804 -10.5794 -10.6945
TCL: Setting parameter constraintScaling to 0
TCL: Running for 5000 steps
ETITLE: TS BOND ANGLE DIHED IMPRP ELECT VDW BOUNDARY MISC KINETIC TOTAL TEMP POTENTIAL TOTAL3 TEMPAVG PRESSURE GPRESSURE VOLUME PRESSAVG GPRESSAVG
ENERGY: 50000 1636.2525 2474.8601 3209.1304 0.0000 -176271.8618 20237.9331 0.0000 0.0000 30964.1946 -117749.4912 301.0557 -148713.6858 -117706.4777 301.0557 -47.0225 -55.9760 497830.0804 -47.0225 -55.9760
ENERGY: 51000 1602.4774 2437.4801 3211.1885 0.0000 -176042.3244 20077.7008 0.0000 0.0000 30880.2667 -117833.2110 300.2397 -148713.4777 -117787.8673 299.2595 16.0120 -9.4252 496289.0413 -7.3290 -7.4387
ENERGY: 52000 1638.8013 2402.3347 3200.3526 0.0000 -175713.9076 19910.9713 0.0000 0.0000 30839.9307 -117721.5169 299.8475 -148561.4476 -117681.5697 298.5039 -104.0097 -75.8959 496017.1026 -1.1579 -1.0942
ENERGY: 53000 1658.6026 2431.8839 3202.8947 0.0000 -175714.8603 20012.0886 0.0000 0.0000 30940.9172 -117468.4734 300.8294 -148409.3906 -117428.2518 300.6052 -33.6494 13.3071 496701.2197 2.4044 2.3107
ENERGY: 54000 1640.3253 2399.4416 3206.1722 0.0000 -175219.9873 19817.7066 0.0000 0.0000 30854.9717 -117301.3699 299.9938 -148156.3416 -117253.6247 300.3740 -100.9327 -38.9356 498142.6911 11.9706 11.8020
ENERGY: 55000 1620.1725 2379.3442 3279.5545 0.0000 -175522.3536 19949.7688 0.0000 0.0000 30780.4700 -117513.0436 299.2694 -148293.5136 -117473.2837 300.8127 -128.9180 -113.8908 497382.5850 2.5175 2.9718
