Info: SIMULATION PARAMETERS:
Info: TIMESTEP               2
Info: NUMBER OF STEPS        0
Info: STEPS PER CYCLE        10
Info: PERIODIC CELL BASIS 1  72.449 0 0
Info: PERIODIC CELL BASIS 2  0 93.247 0
Info: PERIODIC CELL BASIS 3  0 0 79.185
Info: PERIODIC CELL CENTER   -0.248 -0.156 -0.047
Info: WRAPPING WATERS AROUND PERIODIC BOUNDARIES ON OUTPUT.
Info: WRAPPING ALL CLUSTERS AROUND PERIODIC BOUNDARIES ON OUTPUT.
Info: FIRST LDB TIMESTEP     50
Info: LAST LDB TIMESTEP     -1
Info: HOM BACKGROUND SCALING 1
Info: PME BACKGROUND SCALING 1
Info: MIN ATOMS PER PATCH    40
Info: INITIAL TEMPERATURE    0
Info: CENTER OF MASS MOVING INITIALLY? NO
Info: DIELECTRIC             1
Info: EXCLUDE                SCALED ONE-FOUR
Info: 1-4 ELECTROSTATICS SCALED BY 0.833333
Info: MODIFIED 1-4 VDW PARAMETERS WILL BE USED
Info: NO DCD TRAJECTORY OUTPUT
Info: NO EXTENDED SYSTEM TRAJECTORY OUTPUT
Info: NO VELOCITY DCD OUTPUT
Info: NO FORCE DCD OUTPUT
Info: OUTPUT FILENAME        ../replicas/rep53/equilibration/eq0
Info: NO RESTART FILE
Info: SWITCHING ACTIVE
Info: SWITCHING ON           10
Info: SWITCHING OFF          12
Info: PAIRLIST DISTANCE      13.5
Info: PAIRLIST SHRINK RATE   0.01
Info: PAIRLIST GROW RATE     0.01
Info: PAIRLIST TRIGGER       0.3
Info: PAIRLISTS PER CYCLE    2
Info: PAIRLISTS ENABLED
Info: MARGIN                 0
Info: HYDROGEN GROUP CUTOFF  2.5
Info: PATCH DIMENSION        16
Info: ENERGY OUTPUT STEPS    500
Info: CROSSTERM ENERGY INCLUDED IN DIHEDRAL
Info: TIMING OUTPUT STEPS    5000
Info: PRESSURE OUTPUT STEPS  500
Info: HARMONIC CONSTRAINTS ACTIVE
Info: HARMONIC CONS EXP      2
Info: HARMONIC CONS SCALING  10
Info: CONJUGATE GRADIENT MINIMIZATION ACTIVE
Info: LINE MINIMIZATION GOAL = 0.001
Info: BABY STEP SIZE = 0.01
Info: TINY STEP SIZE = 1e-06
Info: PARTICLE MESH EWALD (PME) ACTIVE
Info: PME TOLERANCE               1e-06
Info: PME EWALD COEFFICIENT       0.257952
Info: PME INTERPOLATION ORDER     4
Info: PME GRID DIMENSIONS         80 96 80
Info: PME MAXIMUM GRID SPACING    1
Info: FULL ELECTROSTATIC EVALUATION FREQUENCY      2
Info: USING VERLET I (r-RESPA) MTS SCHEME.
Info: C1 SPLITTING OF LONG RANGE ELECTROSTATICS
Info: PLACING ATOMS IN PATCHES BY HYDROGEN GROUPS
Info: RIGID BONDS TO HYDROGEN : ALL
Info:         ERROR TOLERANCE : 1e-05
Info:          MAX ITERATIONS : 100
Info: RIGID WATER USING SETTLE ALGORITHM
Info: RANDOM NUMBER SEED     1503690771
Info: USE HYDROGEN BONDS?    NO
Info: Using AMBER format force field!
Info: AMBER PARM FILE        ../build/complex.top
Info: COORDINATE PDB         ../build/complex.pdb
Info: Exclusions in PARM file will be ignored!
Info: SCNB (VDW SCALING)     2
Info: USING ARITHMETIC MEAN TO COMBINE L-J SIGMA PARAMETERS
Info: SUMMARY OF PARAMETERS:
Info: 71 BONDS
Info: 145 ANGLES
Info: 76 DIHEDRAL
Info: 0 IMPROPER
Info: 0 CROSSTERM
Info: 0 VDW
Info: 190 VDW_PAIRS
Info: 0 NBTHOLE_PAIRS
Info: STRUCTURE SUMMARY:
Info: 49394 ATOMS
Info: 49448 BONDS
Info: 8698 ANGLES
Info: 18780 DIHEDRALS
Info: 0 IMPROPERS
Info: 0 CROSSTERMS
Info: 0 EXCLUSIONS
Info: 2336 CONSTRAINTS
Info: 47058 RIGID BONDS
Info: 101124 DEGREES OF FREEDOM
Info: 17225 HYDROGEN GROUPS
Info: 4 ATOMS IN LARGEST HYDROGEN GROUP
Info: 17225 MIGRATION GROUPS
Info: 4 ATOMS IN LARGEST MIGRATION GROUP
Info: TOTAL MASS = 301478 amu
Info: TOTAL CHARGE = 1.00115e-05 e
Info: MASS DENSITY = 0.935846 g/cm^3
Info: ATOM DENSITY = 0.0923345 atoms/A^3
Info: ADDED 70656 IMPLICIT EXCLUSIONS
Info: NONBONDED TABLE R-SQUARED SPACING: 0.0625
Info: NONBONDED TABLE SIZE: 769 POINTS
Info: REMOVING COM VELOCITY 0 0 0
TCL: Minimizing for 100 steps
ETITLE: TS BOND ANGLE DIHED IMPRP ELECT VDW BOUNDARY MISC KINETIC TOTAL TEMP POTENTIAL TOTAL3 TEMPAVG PRESSURE GPRESSURE VOLUME PRESSAVG GPRESSAVG
ENERGY: 0 155.4176 1012.2698 2855.7272 0.0000 -154496.7911 207729.2052 0.0468 0.0000 0.0000 57255.8755 0.0000 57255.8755 57255.8755 0.0000 116350.2532 86546.1670 534946.2959 116350.2532 86546.1670
ENERGY: 20 304.7536 935.7910 2893.4663 0.0000 -158672.9394 17936.6600 143.9453 0.0000 0.0000 -136458.3232 0.0000 -136458.3232 -136458.3232 0.0000 16523.9394 -239.4551 534946.2959 16523.9394 -239.4551
ENERGY: 40 198.7430 799.5725 2896.9273 0.0000 -162811.4546 16417.9532 221.3030 0.0000 0.0000 -142276.9557 0.0000 -142276.9557 -142276.9557 0.0000 15011.2699 -2135.4704 534946.2959 15011.2699 -2135.4704
ENERGY: 60 130.5284 715.3440 2898.2166 0.0000 -167496.1571 15446.7539 315.2796 0.0000 0.0000 -147990.0346 0.0000 -147990.0346 -147990.0346 0.0000 13793.8836 -3799.3988 534946.2959 13793.8836 -3799.3988
ENERGY: 80 431.2761 765.6313 2904.3784 0.0000 -169937.5321 15121.1521 372.0122 0.0000 0.0000 -150343.0820 0.0000 -150343.0820 -150343.0820 0.0000 13270.3299 -4577.2467 534946.2959 13270.3299 -4577.2467
ENERGY: 100 119.3869 710.0601 2905.2588 0.0000 -171259.7137 14991.7870 387.3612 0.0000 0.0000 -152145.8597 0.0000 -152145.8597 -152145.8597 0.0000 13056.2652 -4908.1730 534946.2959 13056.2652 -4908.1730
TCL: Setting parameter constraintScaling to 5.0
TCL: Minimizing for 100 steps
ETITLE: TS BOND ANGLE DIHED IMPRP ELECT VDW BOUNDARY MISC KINETIC TOTAL TEMP POTENTIAL TOTAL3 TEMPAVG PRESSURE GPRESSURE VOLUME PRESSAVG GPRESSAVG
ENERGY: 100 119.3869 710.0601 2905.2588 0.0000 -171259.7137 14991.7870 193.6806 0.0000 0.0000 -152339.5403 0.0000 -152339.5403 -152339.5403 0.0000 13672.7713 -23021.8185 534946.2959 13672.7713 -23021.8185
ENERGY: 120 108.8843 687.5843 2912.9267 0.0000 -172865.8639 14798.2716 281.1909 0.0000 0.0000 -154077.0060 0.0000 -154077.0060 -154077.0060 0.0000 13218.2585 -4906.0106 534946.2959 13218.2585 -4906.0106
ENERGY: 140 309.4375 708.8667 2913.8027 0.0000 -174236.6820 14731.4807 326.6401 0.0000 0.0000 -155246.4543 0.0000 -155246.4543 -155246.4543 0.0000 12971.5253 -5303.2463 534946.2959 12971.5253 -5303.2463
ENERGY: 160 265.2650 683.1211 2923.1756 0.0000 -176275.4175 14757.3403 382.8931 0.0000 0.0000 -157263.6223 0.0000 -157263.6223 -157263.6223 0.0000 12740.9489 -5740.7013 534946.2959 12740.9489 -5740.7013
ENERGY: 180 268.8752 744.0959 2928.5663 0.0000 -178995.4447 15023.5211 473.3053 0.0000 0.0000 -159557.0809 0.0000 -159557.0809 -159557.0809 0.0000 12521.6044 -6221.4425 534946.2959 12521.6044 -6221.4425
ENERGY: 200 238.9160 694.0870 2941.3640 0.0000 -181556.3412 15587.0707 546.2684 0.0000 0.0000 -161548.6351 0.0000 -161548.6351 -161548.6351 0.0000 12582.6474 -6417.7711 534946.2959 12582.6474 -6417.7711
TCL: Setting parameter constraintScaling to 2.5
TCL: Minimizing for 100 steps
ETITLE: TS BOND ANGLE DIHED IMPRP ELECT VDW BOUNDARY MISC KINETIC TOTAL TEMP POTENTIAL TOTAL3 TEMPAVG PRESSURE GPRESSURE VOLUME PRESSAVG GPRESSAVG
ENERGY: 200 238.9160 694.0870 2941.3640 0.0000 -181556.3412 15587.0707 273.1342 0.0000 0.0000 -161821.7693 0.0000 -161821.7693 -161821.7693 0.0000 13229.5566 -25648.5819 534946.2959 13229.5566 -25648.5819
ENERGY: 220 245.7952 677.2280 2932.9987 0.0000 -182075.1765 15472.1320 337.4436 0.0000 0.0000 -162409.5791 0.0000 -162409.5791 -162409.5791 0.0000 12972.4165 -6082.5607 534946.2959 12972.4165 -6082.5607
ENERGY: 240 154.3959 693.8223 2928.7035 0.0000 -182681.7976 15529.5684 347.1200 0.0000 0.0000 -163028.1874 0.0000 -163028.1874 -163028.1874 0.0000 13033.1780 -6125.3812 534946.2959 13033.1780 -6125.3812
ENERGY: 260 177.8721 683.2458 2920.2425 0.0000 -184291.3774 15886.4905 398.8896 0.0000 0.0000 -164224.6369 0.0000 -164224.6369 -164224.6369 0.0000 13054.1891 -6267.7490 534946.2959 13054.1891 -6267.7490
ENERGY: 280 169.3200 700.9323 2917.6034 0.0000 -185423.5715 16229.1443 454.8660 0.0000 0.0000 -164951.7055 0.0000 -164951.7055 -164951.7055 0.0000 13143.5645 -6331.9040 534946.2959 13143.5645 -6331.9040
ENERGY: 300 126.7022 639.5541 2916.2520 0.0000 -186095.1093 16445.9741 481.3747 0.0000 0.0000 -165485.2521 0.0000 -165485.2521 -165485.2521 0.0000 13207.8217 -6336.4080 534946.2959 13207.8217 -6336.4080
TCL: Setting parameter constraintScaling to 1.25
TCL: Minimizing for 100 steps
ETITLE: TS BOND ANGLE DIHED IMPRP ELECT VDW BOUNDARY MISC KINETIC TOTAL TEMP POTENTIAL TOTAL3 TEMPAVG PRESSURE GPRESSURE VOLUME PRESSAVG GPRESSAVG
ENERGY: 300 126.7022 639.5541 2916.2520 0.0000 -186095.1093 16445.9741 240.6874 0.0000 0.0000 -165725.9395 0.0000 -165725.9395 -165725.9395 0.0000 13656.1695 -26346.4454 534946.2959 13656.1695 -26346.4454
ENERGY: 320 131.9801 624.5797 2911.1556 0.0000 -186666.2796 16579.9840 272.7529 0.0000 0.0000 -166145.8273 0.0000 -166145.8273 -166145.8273 0.0000 13629.6579 -5967.8272 534946.2959 13629.6579 -5967.8272
ENERGY: 340 151.5203 624.9814 2910.6308 0.0000 -187383.7040 16813.4631 296.2025 0.0000 0.0000 -166586.9058 0.0000 -166586.9058 -166586.9058 0.0000 13649.2846 -6004.2901 534946.2959 13649.2846 -6004.2901
ENERGY: 360 182.2318 675.6358 2908.2557 0.0000 -188852.7053 17310.1638 356.0625 0.0000 0.0000 -167420.3557 0.0000 -167420.3557 -167420.3557 0.0000 13856.3199 -6001.5039 534946.2959 13856.3199 -6001.5039
ENERGY: 380 180.3376 660.3990 2902.0678 0.0000 -189854.0469 17701.5988 379.2517 0.0000 0.0000 -168030.3919 0.0000 -168030.3919 -168030.3919 0.0000 13964.2832 -5983.0815 534946.2959 13964.2832 -5983.0815
ENERGY: 400 138.4763 633.0976 2899.7934 0.0000 -190435.6880 17912.4040 393.1226 0.0000 0.0000 -168458.7941 0.0000 -168458.7941 -168458.7941 0.0000 14116.5213 -5917.5845 534946.2959 14116.5213 -5917.5845
TCL: Setting parameter constraintScaling to 0.625
TCL: Minimizing for 100 steps
ETITLE: TS BOND ANGLE DIHED IMPRP ELECT VDW BOUNDARY MISC KINETIC TOTAL TEMP POTENTIAL TOTAL3 TEMPAVG PRESSURE GPRESSURE VOLUME PRESSAVG GPRESSAVG
ENERGY: 400 138.4763 633.0976 2899.7934 0.0000 -190435.6880 17912.4040 196.5613 0.0000 0.0000 -168655.3554 0.0000 -168655.3554 -168655.3554 0.0000 14413.9958 -26602.4085 534946.2959 14413.9958 -26602.4085
ENERGY: 420 149.2743 627.3260 2895.3878 0.0000 -190854.9163 18010.8795 218.9303 0.0000 0.0000 -168953.1185 0.0000 -168953.1185 -168953.1185 0.0000 14346.1599 -5716.9312 534946.2959 14346.1599 -5716.9312
ENERGY: 440 204.2666 640.9083 2901.8500 0.0000 -191453.6136 18203.1971 238.1274 0.0000 0.0000 -169265.2642 0.0000 -169265.2642 -169265.2642 0.0000 14323.9547 -5774.5593 534946.2959 14323.9547 -5774.5593
ENERGY: 460 141.5039 647.0280 2889.0937 0.0000 -192210.4152 18462.0834 260.1266 0.0000 0.0000 -169810.5795 0.0000 -169810.5795 -169810.5795 0.0000 14534.8348 -5702.7503 534946.2959 14534.8348 -5702.7503
ENERGY: 480 142.1303 637.7872 2881.1756 0.0000 -193308.7364 18884.5812 290.1164 0.0000 0.0000 -170472.9457 0.0000 -170472.9457 -170472.9457 0.0000 14702.9086 -5652.6370 534946.2959 14702.9086 -5652.6370
ENERGY: 500 172.8787 652.9542 2886.3888 0.0000 -193701.2873 19038.7365 298.3074 0.0000 0.0000 -170652.0216 0.0000 -170652.0216 -170652.0216 0.0000 14698.9532 -5669.1228 534946.2959 14698.9532 -5669.1228
TCL: Setting parameter constraintScaling to 0.3125
TCL: Minimizing for 100 steps
ETITLE: TS BOND ANGLE DIHED IMPRP ELECT VDW BOUNDARY MISC KINETIC TOTAL TEMP POTENTIAL TOTAL3 TEMPAVG PRESSURE GPRESSURE VOLUME PRESSAVG GPRESSAVG
ENERGY: 500 172.8787 652.9542 2886.3888 0.0000 -193701.2873 19038.7365 149.1537 0.0000 0.0000 -170801.1754 0.0000 -170801.1754 -170801.1754 0.0000 14891.8761 -26893.2982 534946.2959 14891.8761 -26893.2982
ENERGY: 520 144.8609 649.1649 2878.9495 0.0000 -193873.9098 19095.2349 153.4525 0.0000 0.0000 -170952.2471 0.0000 -170952.2471 -170952.2471 0.0000 14976.4985 -5437.9652 534946.2959 14976.4985 -5437.9652
ENERGY: 540 151.4617 645.5556 2873.0495 0.0000 -194527.5707 19323.0424 172.9682 0.0000 0.0000 -171361.4934 0.0000 -171361.4934 -171361.4934 0.0000 15036.3208 -5450.0573 534946.2959 15036.3208 -5450.0573
ENERGY: 560 196.8257 649.4593 2879.0478 0.0000 -195228.6351 19586.1403 185.5094 0.0000 0.0000 -171731.6527 0.0000 -171731.6527 -171731.6527 0.0000 15110.6371 -5431.4319 534946.2959 15110.6371 -5431.4319
ENERGY: 580 312.4160 740.7528 2872.7231 0.0000 -195647.7742 19760.3163 196.1904 0.0000 0.0000 -171765.3756 0.0000 -171765.3756 -171765.3756 0.0000 15134.6030 -5450.7320 534946.2959 15134.6030 -5450.7320
ENERGY: 600 239.5722 704.9778 2870.5917 0.0000 -196369.0522 20022.6843 215.3588 0.0000 0.0000 -172315.8674 0.0000 -172315.8674 -172315.8674 0.0000 15237.7851 -5436.0879 534946.2959 15237.7851 -5436.0879
TCL: Setting parameter constraintScaling to 0.15625
TCL: Minimizing for 100 steps
ETITLE: TS BOND ANGLE DIHED IMPRP ELECT VDW BOUNDARY MISC KINETIC TOTAL TEMP POTENTIAL TOTAL3 TEMPAVG PRESSURE GPRESSURE VOLUME PRESSAVG GPRESSAVG
ENERGY: 600 239.5722 704.9778 2870.5917 0.0000 -196369.0522 20022.6843 107.6794 0.0000 0.0000 -172423.5468 0.0000 -172423.5468 -172423.5468 0.0000 15357.5048 -27052.7505 534946.2959 15357.5048 -27052.7505
ENERGY: 620 221.7459 656.8277 2866.8890 0.0000 -196593.7547 20100.7581 107.7051 0.0000 0.0000 -172639.8289 0.0000 -172639.8289 -172639.8289 0.0000 15453.7820 -5256.8653 534946.2959 15453.7820 -5256.8653
ENERGY: 640 153.8283 659.4314 2863.2948 0.0000 -197386.1344 20400.1957 119.4579 0.0000 0.0000 -173189.9264 0.0000 -173189.9264 -173189.9264 0.0000 15630.2926 -5183.2605 534946.2959 15630.2926 -5183.2605
ENERGY: 660 173.2453 662.9347 2862.5178 0.0000 -197603.2566 20465.0424 125.1887 0.0000 0.0000 -173314.3277 0.0000 -173314.3277 -173314.3277 0.0000 15589.4583 -5229.4135 534946.2959 15589.4583 -5229.4135
ENERGY: 680 334.3710 692.8036 2850.0574 0.0000 -198703.6808 20912.4787 138.8906 0.0000 0.0000 -173775.0795 0.0000 -173775.0795 -173775.0795 0.0000 15761.6118 -5168.9553 534946.2959 15761.6118 -5168.9553
ENERGY: 700 158.5791 668.9646 2849.6247 0.0000 -199495.4098 21233.9709 148.3520 0.0000 0.0000 -174435.9186 0.0000 -174435.9186 -174435.9186 0.0000 16012.4304 -5046.0998 534946.2959 16012.4304 -5046.0998
TCL: Setting parameter constraintScaling to 0.078125
TCL: Minimizing for 100 steps
ETITLE: TS BOND ANGLE DIHED IMPRP ELECT VDW BOUNDARY MISC KINETIC TOTAL TEMP POTENTIAL TOTAL3 TEMPAVG PRESSURE GPRESSURE VOLUME PRESSAVG GPRESSAVG
ENERGY: 700 158.5791 668.9646 2849.6247 0.0000 -199495.4098 21233.9709 74.1760 0.0000 0.0000 -174510.0946 0.0000 -174510.0946 -174510.0946 0.0000 16085.6237 -27069.6594 534946.2959 16085.6237 -27069.6594
ENERGY: 720 164.8861 666.6888 2844.6273 0.0000 -199750.7654 21312.1107 77.6154 0.0000 0.0000 -174684.8370 0.0000 -174684.8370 -174684.8370 0.0000 16101.5889 -4986.2600 534946.2959 16101.5889 -4986.2600
ENERGY: 740 226.8714 659.4246 2840.5197 0.0000 -200313.2492 21517.2249 82.9715 0.0000 0.0000 -174986.2370 0.0000 -174986.2370 -174986.2370 0.0000 16135.4592 -4996.7542 534946.2959 16135.4592 -4996.7542
ENERGY: 760 193.5622 654.2727 2838.4818 0.0000 -200850.8072 21705.7366 87.7993 0.0000 0.0000 -175370.9546 0.0000 -175370.9546 -175370.9546 0.0000 16227.4182 -4964.5341 534946.2959 16227.4182 -4964.5341
ENERGY: 780 164.9097 677.0811 2834.8524 0.0000 -201047.5110 21787.2493 89.2527 0.0000 0.0000 -175494.1657 0.0000 -175494.1657 -175494.1657 0.0000 16332.6618 -4913.7100 534946.2959 16332.6618 -4913.7100
ENERGY: 800 172.8293 667.8818 2833.6706 0.0000 -201871.1025 22115.0004 94.8024 0.0000 0.0000 -175986.9179 0.0000 -175986.9179 -175986.9179 0.0000 16484.1433 -4845.6617 534946.2959 16484.1433 -4845.6617
TCL: Setting parameter constraintScaling to 0.0390625
TCL: Minimizing for 100 steps
ETITLE: TS BOND ANGLE DIHED IMPRP ELECT VDW BOUNDARY MISC KINETIC TOTAL TEMP POTENTIAL TOTAL3 TEMPAVG PRESSURE GPRESSURE VOLUME PRESSAVG GPRESSAVG
ENERGY: 800 172.8293 667.8818 2833.6706 0.0000 -201871.1025 22115.0004 47.4012 0.0000 0.0000 -176034.3191 0.0000 -176034.3191 -176034.3191 0.0000 16526.6732 -27201.3401 534946.2959 16526.6732 -27201.3401
ENERGY: 820 157.9503 644.9203 2828.7946 0.0000 -201913.5975 22129.3038 47.7413 0.0000 0.0000 -176104.8871 0.0000 -176104.8871 -176104.8871 0.0000 16522.5302 -4811.1959 534946.2959 16522.5302 -4811.1959
ENERGY: 840 161.7269 647.9051 2825.9326 0.0000 -202232.4195 22244.4738 49.8373 0.0000 0.0000 -176302.5438 0.0000 -176302.5438 -176302.5438 0.0000 16569.8460 -4803.2191 534946.2959 16569.8460 -4803.2191
ENERGY: 860 261.9517 706.5591 2829.6534 0.0000 -202544.0624 22365.0139 51.2349 0.0000 0.0000 -176329.6495 0.0000 -176329.6495 -176329.6495 0.0000 16632.2656 -4781.7745 534946.2959 16632.2656 -4781.7745
ENERGY: 880 172.1391 651.4968 2821.3211 0.0000 -203269.5673 22675.6998 54.9381 0.0000 0.0000 -176893.9724 0.0000 -176893.9724 -176893.9724 0.0000 16787.0855 -4700.6822 534946.2959 16787.0855 -4700.6822
ENERGY: 900 222.6880 672.5363 2818.2999 0.0000 -204119.7545 23070.3322 60.0591 0.0000 0.0000 -177275.8391 0.0000 -177275.8391 -177275.8391 0.0000 16952.7088 -4628.7552 534946.2959 16952.7088 -4628.7552
TCL: Setting parameter constraintScaling to 0.01953125
TCL: Minimizing for 100 steps
ETITLE: TS BOND ANGLE DIHED IMPRP ELECT VDW BOUNDARY MISC KINETIC TOTAL TEMP POTENTIAL TOTAL3 TEMPAVG PRESSURE GPRESSURE VOLUME PRESSAVG GPRESSAVG
ENERGY: 900 222.6880 672.5363 2818.2999 0.0000 -204119.7545 23070.3322 30.0295 0.0000 0.0000 -177305.8686 0.0000 -177305.8686 -177305.8686 0.0000 16977.3495 -27287.6058 534946.2959 16977.3495 -27287.6058
ENERGY: 920 177.7601 651.7940 2815.2806 0.0000 -204263.9965 23122.4432 30.3359 0.0000 0.0000 -177466.3827 0.0000 -177466.3827 -177466.3827 0.0000 17038.8201 -4572.5899 534946.2959 17038.8201 -4572.5899
ENERGY: 940 187.0231 659.4864 2814.1590 0.0000 -204733.8349 23319.0942 31.7136 0.0000 0.0000 -177722.3586 0.0000 -177722.3586 -177722.3586 0.0000 17132.9657 -4531.3792 534946.2959 17132.9657 -4531.3792
ENERGY: 960 219.3264 683.9457 2812.1198 0.0000 -204926.8587 23399.8588 32.3033 0.0000 0.0000 -177779.3048 0.0000 -177779.3048 -177779.3048 0.0000 17167.6723 -4520.4929 534946.2959 17167.6723 -4520.4929
ENERGY: 980 166.1016 654.0953 2811.5336 0.0000 -204973.0812 23414.8756 32.4493 0.0000 0.0000 -177894.0258 0.0000 -177894.0258 -177894.0258 0.0000 17188.9273 -4504.1552 534946.2959 17188.9273 -4504.1552
ENERGY: 1000 185.6302 674.6606 2813.0893 0.0000 -205442.0823 23622.7030 33.9562 0.0000 0.0000 -178112.0431 0.0000 -178112.0431 -178112.0431 0.0000 17268.7691 -4468.8108 534946.2959 17268.7691 -4468.8108
TCL: Setting parameter constraintScaling to 0
TCL: Minimizing for 5000 steps
ETITLE: TS BOND ANGLE DIHED IMPRP ELECT VDW BOUNDARY MISC KINETIC TOTAL TEMP POTENTIAL TOTAL3 TEMPAVG PRESSURE GPRESSURE VOLUME PRESSAVG GPRESSAVG
ENERGY: 1000 185.6302 674.6606 2813.0893 0.0000 -205442.0823 23622.7030 0.0000 0.0000 0.0000 -178145.9993 0.0000 -178145.9993 -178145.9993 0.0000 17295.5607 -27282.5160 534946.2959 17295.5607 -27282.5160
ENERGY: 2000 167.9688 662.8526 2800.0612 0.0000 -214538.3683 27680.3746 0.0000 0.0000 0.0000 -183227.1110 0.0000 -183227.1110 -183227.1110 0.0000 19475.8802 -3287.2645 534946.2959 19475.8802 -3287.2645
ENERGY: 3000 168.2106 667.1203 2793.5092 0.0000 -217508.2970 28878.2478 0.0000 0.0000 0.0000 -185001.2091 0.0000 -185001.2091 -185001.2091 0.0000 20099.2872 -2998.0555 534946.2959 20099.2872 -2998.0555
ENERGY: 4000 165.9219 667.8280 2789.3350 0.0000 -218613.1907 29313.9020 0.0000 0.0000 0.0000 -185676.2038 0.0000 -185676.2038 -185676.2038 0.0000 20346.1881 -2854.5593 534946.2959 20346.1881 -2854.5593
ENERGY: 5000 167.0092 664.3375 2787.0292 0.0000 -219376.9638 29621.9708 0.0000 0.0000 0.0000 -186136.6173 0.0000 -186136.6173 -186136.6173 0.0000 20497.5617 -2778.6772 534946.2959 20497.5617 -2778.6772
ENERGY: 6000 165.3433 662.1355 2787.9080 0.0000 -219787.6225 29765.5223 0.0000 0.0000 0.0000 -186406.7134 0.0000 -186406.7134 -186406.7134 0.0000 20579.1742 -2737.5955 534946.2959 20579.1742 -2737.5955
