Info: SIMULATION PARAMETERS:
Info: TIMESTEP               1
Info: NUMBER OF STEPS        0
Info: STEPS PER CYCLE        10
Info: PERIODIC CELL BASIS 1  72.449 0 0
Info: PERIODIC CELL BASIS 2  0 93.247 0
Info: PERIODIC CELL BASIS 3  0 0 79.185
Info: PERIODIC CELL CENTER   -0.248 -0.156 -0.047
Info: WRAPPING WATERS AROUND PERIODIC BOUNDARIES ON OUTPUT.
Info: WRAPPING ALL CLUSTERS AROUND PERIODIC BOUNDARIES ON OUTPUT.
Info: FIRST LDB TIMESTEP     50
Info: LAST LDB TIMESTEP     -1
Info: HOM BACKGROUND SCALING 1
Info: PME BACKGROUND SCALING 1
Info: MIN ATOMS PER PATCH    40
Info: VELOCITY FILE          ../replicas/rep113/equilibration/eq1.vel
Info: CENTER OF MASS MOVING INITIALLY? NO
Info: DIELECTRIC             1
Info: EXCLUDE                SCALED ONE-FOUR
Info: 1-4 ELECTROSTATICS SCALED BY 0.833333
Info: MODIFIED 1-4 VDW PARAMETERS WILL BE USED
Info: DCD FILENAME           ../replicas/rep113/equilibration/eq2.dcd
Info: DCD FREQUENCY          5000
Info: DCD FIRST STEP         5000
Info: DCD FILE WILL CONTAIN UNIT CELL DATA
Info: XST FILENAME           ../replicas/rep113/equilibration/eq2.xst
Info: XST FREQUENCY          5000
Info: NO VELOCITY DCD OUTPUT
Info: NO FORCE DCD OUTPUT
Info: OUTPUT FILENAME        ../replicas/rep113/equilibration/eq2
Info: RESTART FILENAME       ../replicas/rep113/equilibration/eq2.restart
Info: RESTART FREQUENCY      5000
Info: BINARY RESTART FILES WILL BE USED
Info: SWITCHING ACTIVE
Info: SWITCHING ON           10
Info: SWITCHING OFF          12
Info: PAIRLIST DISTANCE      13.5
Info: PAIRLIST SHRINK RATE   0.01
Info: PAIRLIST GROW RATE     0.01
Info: PAIRLIST TRIGGER       0.3
Info: PAIRLISTS PER CYCLE    2
Info: PAIRLISTS ENABLED
Info: MARGIN                 0.48
Info: HYDROGEN GROUP CUTOFF  2.5
Info: PATCH DIMENSION        16.48
Info: ENERGY OUTPUT STEPS    500
Info: CROSSTERM ENERGY INCLUDED IN DIHEDRAL
Info: TIMING OUTPUT STEPS    5000
Info: PRESSURE OUTPUT STEPS  500
Info: HARMONIC CONSTRAINTS ACTIVE
Info: HARMONIC CONS EXP      2
Info: HARMONIC CONS SCALING  10
Info: LANGEVIN DYNAMICS ACTIVE
Info: LANGEVIN TEMPERATURE   300
Info: LANGEVIN USING BBK INTEGRATOR
Info: LANGEVIN DAMPING COEFFICIENT IS 5 INVERSE PS
Info: LANGEVIN DYNAMICS NOT APPLIED TO HYDROGENS
Info: BERENDSEN PRESSURE COUPLING ACTIVE
Info:     TARGET PRESSURE IS 1 BAR
Info:     COMPRESSIBILITY ESTIMATE IS 4.57e-05 BAR^(-1)
Info:     RELAXATION TIME IS 100 FS
Info:     APPLIED EVERY 2 STEPS
Info:     PRESSURE CONTROL IS GROUP-BASED
Info:       CELL FLUCTUATION IS ISOTROPIC
Info: PARTICLE MESH EWALD (PME) ACTIVE
Info: PME TOLERANCE               1e-06
Info: PME EWALD COEFFICIENT       0.257952
Info: PME INTERPOLATION ORDER     4
Info: PME GRID DIMENSIONS         80 96 80
Info: PME MAXIMUM GRID SPACING    1
Info: FULL ELECTROSTATIC EVALUATION FREQUENCY      2
Info: USING VERLET I (r-RESPA) MTS SCHEME.
Info: C1 SPLITTING OF LONG RANGE ELECTROSTATICS
Info: PLACING ATOMS IN PATCHES BY HYDROGEN GROUPS
Info: RIGID BONDS TO HYDROGEN : WATER
Info:         ERROR TOLERANCE : 1e-05
Info:          MAX ITERATIONS : 100
Info: RIGID WATER USING SETTLE ALGORITHM
Info: RANDOM NUMBER SEED     1503719456
Info: USE HYDROGEN BONDS?    NO
Info: Using AMBER format force field!
Info: AMBER PARM FILE        ../build/complex.top
Info: COORDINATE PDB         ../replicas/rep113/equilibration/eq1.coor
Info: Exclusions in PARM file will be ignored!
Info: SCNB (VDW SCALING)     2
Info: USING ARITHMETIC MEAN TO COMBINE L-J SIGMA PARAMETERS
Info: SUMMARY OF PARAMETERS:
Info: 71 BONDS
Info: 145 ANGLES
Info: 76 DIHEDRAL
Info: 0 IMPROPER
Info: 0 CROSSTERM
Info: 0 VDW
Info: 190 VDW_PAIRS
Info: 0 NBTHOLE_PAIRS
Info: STRUCTURE SUMMARY:
Info: 49394 ATOMS
Info: 49448 BONDS
Info: 8698 ANGLES
Info: 18780 DIHEDRALS
Info: 0 IMPROPERS
Info: 0 CROSSTERMS
Info: 0 EXCLUSIONS
Info: 2336 CONSTRAINTS
Info: 44667 RIGID BONDS
Info: 103515 DEGREES OF FREEDOM
Info: 17225 HYDROGEN GROUPS
Info: 4 ATOMS IN LARGEST HYDROGEN GROUP
Info: 17225 MIGRATION GROUPS
Info: 4 ATOMS IN LARGEST MIGRATION GROUP
Info: TOTAL MASS = 301478 amu
Info: TOTAL CHARGE = 1.00115e-05 e
Info: MASS DENSITY = 0.935846 g/cm^3
Info: ATOM DENSITY = 0.0923345 atoms/A^3
Info: ADDED 70656 IMPLICIT EXCLUSIONS
Info: NONBONDED TABLE R-SQUARED SPACING: 0.0625
Info: NONBONDED TABLE SIZE: 769 POINTS
Info: REMOVING COM VELOCITY 0.0288683 -0.0138149 0.0179911
TCL: Running for 5000 steps
ETITLE: TS BOND ANGLE DIHED IMPRP ELECT VDW BOUNDARY MISC KINETIC TOTAL TEMP POTENTIAL TOTAL3 TEMPAVG PRESSURE GPRESSURE VOLUME PRESSAVG GPRESSAVG
ENERGY: 0 384.5610 1218.8116 2906.2618 0.0000 -212595.0243 29512.8583 0.0000 0.0000 9967.0461 -168605.4855 96.9066 -178572.5316 -168595.7837 96.9066 -2291.6808 -2389.1753 534946.2959 -2291.6808 -2389.1753
ENERGY: 1000 1191.3583 1974.1751 3110.8507 0.0000 -193529.0744 26487.3795 766.2963 0.0000 24054.4805 -135944.5340 233.8746 -159999.0145 -135910.7696 219.0163 3.8032 3.9682 523012.9421 -12.3384 -12.3047
ENERGY: 2000 1474.8439 2114.1924 3126.0869 0.0000 -184070.6086 23261.0003 852.4076 0.0000 27813.0149 -125429.0626 270.4177 -153242.0775 -125390.2862 264.4242 -103.0592 -9.8724 515419.1812 -30.4582 -30.8666
ENERGY: 3000 1515.9355 2230.5123 3153.6754 0.0000 -178892.0782 21450.0115 810.0135 0.0000 29579.4090 -120152.5209 287.5919 -149731.9299 -120109.8292 284.3085 -35.0779 9.3339 509956.7103 -7.6158 -7.6413
ENERGY: 4000 1674.7740 2183.7242 3170.8727 0.0000 -176351.8381 20451.1348 812.7480 0.0000 30473.0595 -117585.5249 296.2806 -148058.5844 -117540.2540 295.2386 -53.2206 9.7216 508711.9005 -7.1149 -7.2866
ENERGY: 5000 1518.7653 2319.3853 3111.0450 0.0000 -175477.2140 20242.0752 805.6001 0.0000 30781.5626 -116698.7806 299.2800 -147480.3431 -116658.4585 298.3819 -1.4803 -2.6605 506425.8370 -4.4958 -4.2533
TCL: Setting parameter constraintScaling to 5.0
TCL: Running for 5000 steps
ETITLE: TS BOND ANGLE DIHED IMPRP ELECT VDW BOUNDARY MISC KINETIC TOTAL TEMP POTENTIAL TOTAL3 TEMPAVG PRESSURE GPRESSURE VOLUME PRESSAVG GPRESSAVG
ENERGY: 5000 1518.7653 2319.3853 3111.0450 0.0000 -175477.2140 20242.0752 402.8001 0.0000 30779.5079 -117103.6353 299.2601 -147883.1432 -117056.7153 299.2601 -46.7505 -39.4653 506425.8370 -46.7505 -39.4653
ENERGY: 6000 1654.3369 2261.8168 3165.5847 0.0000 -175266.6684 20135.1776 683.7085 0.0000 30562.9903 -116803.0536 297.1549 -147366.0439 -116750.9382 298.7777 49.1033 -0.7591 505944.3228 3.3208 3.2205
ENERGY: 7000 1624.1186 2339.0800 3141.8846 0.0000 -175622.3481 20217.3252 639.1555 0.0000 30697.9463 -116962.8379 298.4671 -147660.7842 -116917.5592 298.5292 -55.1884 -32.0544 502698.5827 -14.8902 -15.4445
ENERGY: 8000 1600.5595 2332.4001 3163.3364 0.0000 -175797.9443 20274.4254 636.8923 0.0000 30779.8397 -117010.4908 299.2633 -147790.3305 -116967.0223 299.2891 -58.5209 -7.8229 504335.4135 1.2013 1.3703
ENERGY: 9000 1620.0278 2343.3641 3165.1648 0.0000 -175813.2828 20427.2534 642.3574 0.0000 30638.9481 -116976.1673 297.8934 -147615.1154 -116920.2727 298.5656 -74.9869 4.1462 503173.2456 -6.3996 -6.6632
ENERGY: 10000 1605.2093 2329.1829 3153.9717 0.0000 -175223.4559 20071.3951 659.7043 0.0000 30677.3110 -116726.6818 298.2664 -147403.9928 -116682.8749 299.7042 -0.9036 2.9366 503434.1153 3.6223 3.8705
TCL: Setting parameter constraintScaling to 2.5
TCL: Running for 5000 steps
ETITLE: TS BOND ANGLE DIHED IMPRP ELECT VDW BOUNDARY MISC KINETIC TOTAL TEMP POTENTIAL TOTAL3 TEMPAVG PRESSURE GPRESSURE VOLUME PRESSAVG GPRESSAVG
ENERGY: 10000 1605.2093 2329.1829 3153.9717 0.0000 -175223.4559 20071.3951 329.8521 0.0000 30675.2453 -117058.5996 298.2464 -147733.8449 -117014.8354 298.2464 -38.6993 -33.8823 503434.1153 -38.6993 -33.8823
ENERGY: 11000 1634.1121 2335.8194 3149.8898 0.0000 -175855.4694 20267.9371 536.3090 0.0000 31047.7534 -116883.6485 301.8681 -147931.4019 -116837.7467 300.5013 13.6039 15.2395 501868.9693 -13.0115 -12.9941
ENERGY: 12000 1635.6348 2328.4125 3189.0114 0.0000 -175455.5364 20270.7964 507.6995 0.0000 30691.3446 -116832.6372 298.4029 -147523.9818 -116791.0399 299.7909 -63.7844 -41.4322 501252.8099 -0.3991 -0.8747
ENERGY: 13000 1629.5616 2289.0990 3177.1460 0.0000 -175761.7242 20045.9868 539.4412 0.0000 30820.2935 -117260.1961 299.6566 -148080.4896 -117210.6639 299.1412 -80.2429 -76.3837 500807.4103 -8.9414 -8.7532
ENERGY: 14000 1665.0496 2329.6137 3165.7068 0.0000 -175853.0654 20186.2914 503.6126 0.0000 30457.4693 -117545.3221 296.1290 -148002.7914 -117519.5100 297.8785 -67.6297 -1.9429 497361.5329 -16.9874 -16.6594
ENERGY: 15000 1597.2970 2362.5876 3181.1310 0.0000 -176179.8589 20200.4013 518.9084 0.0000 30852.1109 -117467.4227 299.9660 -148319.5336 -117426.0538 298.1943 -118.7569 -35.5065 498891.9291 0.8888 0.7865
TCL: Setting parameter constraintScaling to 1.25
TCL: Running for 5000 steps
ETITLE: TS BOND ANGLE DIHED IMPRP ELECT VDW BOUNDARY MISC KINETIC TOTAL TEMP POTENTIAL TOTAL3 TEMPAVG PRESSURE GPRESSURE VOLUME PRESSAVG GPRESSAVG
ENERGY: 15000 1597.2970 2362.5876 3181.1310 0.0000 -176179.8589 20200.4013 259.4542 0.0000 30850.0703 -117728.9176 299.9461 -148578.9878 -117685.9354 299.9461 -113.2322 -25.2661 498891.9291 -113.2322 -25.2661
ENERGY: 16000 1630.8312 2328.2398 3166.4701 0.0000 -176030.1363 20250.6323 416.5838 0.0000 30789.3772 -117448.0020 299.3560 -148237.3792 -117406.9394 299.9754 -94.5712 -60.1837 499898.8030 7.7363 7.3827
ENERGY: 17000 1654.8281 2312.6287 3193.0301 0.0000 -175485.5781 19973.9992 397.0520 0.0000 30698.3523 -117255.6877 298.4710 -147954.0399 -117201.7726 300.4638 51.8753 24.8797 498545.9141 -8.1968 -7.9422
ENERGY: 18000 1577.0576 2395.6348 3195.2103 0.0000 -175598.3232 20037.1494 408.0900 0.0000 30855.4839 -117129.6971 299.9988 -147985.1810 -117090.2347 300.2159 15.3525 32.7755 498725.8438 2.8715 2.8780
ENERGY: 19000 1559.9862 2371.5540 3201.6826 0.0000 -175808.2603 19921.3132 415.6112 0.0000 30946.9455 -117391.1675 300.8880 -148338.1130 -117346.4543 299.5537 7.0583 58.3498 498681.6906 -5.4832 -5.7064
ENERGY: 20000 1628.8555 2422.4623 3187.3250 0.0000 -175656.8892 20019.6026 422.9398 0.0000 30708.1680 -117267.5360 298.5665 -147975.7040 -117212.7876 299.3902 -59.9800 -65.0935 498436.7614 6.8664 6.8531
TCL: Setting parameter constraintScaling to 0.625
TCL: Running for 5000 steps
ETITLE: TS BOND ANGLE DIHED IMPRP ELECT VDW BOUNDARY MISC KINETIC TOTAL TEMP POTENTIAL TOTAL3 TEMPAVG PRESSURE GPRESSURE VOLUME PRESSAVG GPRESSAVG
ENERGY: 20000 1628.8555 2422.4623 3187.3250 0.0000 -175656.8893 20019.6026 211.4699 0.0000 30706.1111 -117481.0628 298.5465 -148187.1739 -117439.1493 298.5465 -85.7374 -82.3955 498436.7614 -85.7374 -82.3955
ENERGY: 21000 1661.5646 2386.9066 3234.0441 0.0000 -175846.0324 20313.2184 321.1258 0.0000 30875.0034 -117054.1695 300.1885 -147929.1729 -117007.6146 299.2722 -36.0326 -57.3477 498349.7174 -2.0419 -1.5127
ENERGY: 22000 1607.9453 2395.1792 3204.4254 0.0000 -175899.8327 20225.6994 319.6357 0.0000 30905.4416 -117241.5059 300.4845 -148146.9476 -117198.4493 299.6350 62.9039 81.2094 497991.6279 -4.0481 -4.7321
ENERGY: 23000 1688.7404 2409.1005 3170.8264 0.0000 -175678.8252 19983.8947 316.4926 0.0000 31077.6790 -117032.0916 302.1591 -148109.7707 -116989.4893 300.6371 60.4063 42.2921 497050.9099 2.7382 2.5555
ENERGY: 24000 1632.8350 2418.2605 3167.1558 0.0000 -176050.5788 20249.8670 319.5823 0.0000 30686.7766 -117576.1016 298.3585 -148262.8782 -117530.1779 300.2790 -57.0518 40.4979 497671.1839 7.5292 7.2406
ENERGY: 25000 1597.1401 2398.7412 3186.9301 0.0000 -176119.6776 19962.8221 330.2485 0.0000 31067.3219 -117576.4736 302.0584 -148643.7955 -117516.3750 299.1647 -55.3362 12.7915 496295.6592 -7.4193 -7.2187
TCL: Setting parameter constraintScaling to 0.3125
TCL: Running for 5000 steps
ETITLE: TS BOND ANGLE DIHED IMPRP ELECT VDW BOUNDARY MISC KINETIC TOTAL TEMP POTENTIAL TOTAL3 TEMPAVG PRESSURE GPRESSURE VOLUME PRESSAVG GPRESSAVG
ENERGY: 25000 1597.1401 2398.7412 3186.9301 0.0000 -176119.6775 19962.8221 165.1243 0.0000 31065.3053 -117743.6145 302.0388 -148808.9198 -117701.2185 302.0388 -111.9904 -43.1999 496295.6592 -111.9904 -43.1999
ENERGY: 26000 1675.4931 2381.7559 3178.3034 0.0000 -175850.1556 20035.3285 260.5420 0.0000 30655.8389 -117662.8939 298.0577 -148318.7328 -117613.3060 300.5734 -24.5377 -0.6938 497085.0327 9.8105 10.2249
ENERGY: 27000 1617.0664 2394.3022 3198.5124 0.0000 -175866.8822 20052.8958 248.2217 0.0000 30708.2970 -117647.5868 298.5677 -148355.8838 -117598.7186 299.0610 22.9698 -2.7962 496612.8465 2.5807 3.0162
ENERGY: 28000 1627.3234 2383.8532 3202.3108 0.0000 -175896.8692 20078.2553 233.8484 0.0000 30778.3811 -117592.8970 299.2491 -148371.2781 -117541.0055 298.6097 61.6765 120.0000 495055.6575 -12.1044 -11.6193
ENERGY: 29000 1623.6812 2356.6541 3211.3533 0.0000 -175631.5187 19924.6407 271.3506 0.0000 30927.7656 -117316.0732 300.7015 -148243.8389 -117276.9342 300.1190 42.1932 49.5991 497078.8667 -5.5204 -5.4308
ENERGY: 30000 1570.0993 2376.3218 3209.1574 0.0000 -175467.6116 19760.6843 257.7783 0.0000 30663.8489 -117629.7216 298.1355 -148293.5705 -117590.3475 299.6618 44.9779 78.3046 497055.8989 10.8149 10.4565
TCL: Setting parameter constraintScaling to 0.15625
TCL: Running for 5000 steps
ETITLE: TS BOND ANGLE DIHED IMPRP ELECT VDW BOUNDARY MISC KINETIC TOTAL TEMP POTENTIAL TOTAL3 TEMPAVG PRESSURE GPRESSURE VOLUME PRESSAVG GPRESSAVG
ENERGY: 30000 1570.0993 2376.3218 3209.1574 0.0000 -175467.6116 19760.6843 128.8891 0.0000 30661.7876 -117760.6721 298.1155 -148422.4597 -117714.1906 298.1155 -21.9042 9.9474 497055.8989 -21.9042 9.9474
ENERGY: 31000 1647.9449 2417.6425 3200.6168 0.0000 -176034.4438 20079.8656 192.2500 0.0000 30845.0880 -117651.0361 299.8977 -148496.1241 -117601.7334 299.3088 -74.4331 19.1181 498365.6259 7.0127 6.7064
ENERGY: 32000 1629.9859 2389.8178 3276.5768 0.0000 -176062.7301 20131.2789 201.4946 0.0000 30810.3715 -117623.2046 299.5601 -148433.5762 -117576.6143 299.0048 -205.0803 -30.2552 498953.2743 12.2672 12.0716
ENERGY: 33000 1616.6334 2368.2282 3214.3356 0.0000 -176015.6063 20274.2050 189.9151 0.0000 30841.3770 -117510.9121 299.8616 -148352.2891 -117456.8088 299.2350 -5.4757 8.3226 498813.0054 0.0931 0.3431
ENERGY: 34000 1641.0383 2356.9856 3222.2720 0.0000 -175788.4617 20088.7662 199.4229 0.0000 30764.8851 -117515.0916 299.1179 -148279.9768 -117461.2496 300.0619 14.7822 21.6559 498183.5447 -13.1013 -13.3970
ENERGY: 35000 1611.3461 2393.4703 3212.7684 0.0000 -175645.2435 20038.7352 202.8636 0.0000 31142.1512 -117043.9086 302.7859 -148186.0598 -117011.6210 300.6321 151.4271 67.0017 500283.3002 12.9583 12.9972
TCL: Setting parameter constraintScaling to 0.078125
TCL: Running for 5000 steps
ETITLE: TS BOND ANGLE DIHED IMPRP ELECT VDW BOUNDARY MISC KINETIC TOTAL TEMP POTENTIAL TOTAL3 TEMPAVG PRESSURE GPRESSURE VOLUME PRESSAVG GPRESSAVG
ENERGY: 35000 1611.3461 2393.4703 3212.7684 0.0000 -175645.2435 20038.7352 101.4318 0.0000 31140.0773 -117147.4143 302.7658 -148287.4917 -117102.1370 302.7658 108.0067 30.8781 500283.3002 108.0067 30.8781
ENERGY: 36000 1649.0772 2447.6312 3267.0927 0.0000 -175755.8765 20140.8680 148.1018 0.0000 31118.2061 -116984.8996 302.5531 -148103.1057 -116945.3723 300.2911 -75.8632 -0.0172 499268.4546 4.2858 3.8918
ENERGY: 37000 1582.7274 2412.3118 3253.3135 0.0000 -175652.7542 20006.0197 144.2322 0.0000 30996.9170 -117257.2327 301.3739 -148254.1497 -117217.8084 300.7711 -125.6111 18.2891 498023.7679 3.1108 2.7436
ENERGY: 38000 1582.0789 2393.3907 3232.1007 0.0000 -175412.1702 19906.2069 169.5445 0.0000 30825.3491 -117303.4994 299.7058 -148128.8485 -117257.4646 300.4047 -77.0741 -7.3730 497708.2040 -11.6480 -11.3537
ENERGY: 39000 1667.2196 2402.7057 3242.1627 0.0000 -175652.1412 19807.2616 156.6707 0.0000 30628.7527 -117747.3682 297.7943 -148376.1209 -117710.4740 300.0644 -270.5584 -129.3453 496789.5851 -0.0399 0.2208
ENERGY: 40000 1650.5407 2384.9763 3216.8930 0.0000 -175818.8065 19895.5125 171.2248 0.0000 30916.0012 -117583.6581 300.5872 -148499.6593 -117533.4357 299.9013 -219.8169 -118.4588 496193.5907 -7.3561 -7.6390
TCL: Setting parameter constraintScaling to 0.0390625
TCL: Running for 5000 steps
ETITLE: TS BOND ANGLE DIHED IMPRP ELECT VDW BOUNDARY MISC KINETIC TOTAL TEMP POTENTIAL TOTAL3 TEMPAVG PRESSURE GPRESSURE VOLUME PRESSAVG GPRESSAVG
ENERGY: 40000 1650.5407 2384.9763 3216.8930 0.0000 -175818.8065 19895.5125 85.6124 0.0000 30913.9561 -117671.3156 300.5673 -148585.2717 -117631.4471 300.5673 -208.8421 -113.2034 496193.5907 -208.8421 -113.2034
ENERGY: 41000 1626.8057 2434.8213 3224.4489 0.0000 -175898.1728 19878.6006 114.5775 0.0000 30822.3507 -117796.5680 299.6766 -148618.9187 -117740.3129 298.8322 -96.2617 -69.8889 495030.8003 -11.7879 -11.6623
ENERGY: 42000 1647.9360 2407.5499 3175.0263 0.0000 -175866.0072 19933.7634 121.2365 0.0000 30768.1481 -117812.3470 299.1496 -148580.4951 -117765.6038 298.7446 -27.9993 -16.4051 495680.8855 2.3488 2.8259
ENERGY: 43000 1599.5987 2445.3604 3221.0817 0.0000 -176438.8866 20154.8098 116.0214 0.0000 30921.5568 -117980.4578 300.6412 -148902.0146 -117936.5355 299.4602 -83.6887 -53.2688 496907.3634 8.9792 8.8997
ENERGY: 44000 1626.7569 2398.9575 3195.6547 0.0000 -175529.1952 19903.7563 120.6875 0.0000 30832.3555 -117451.0269 299.7739 -148283.3823 -117406.5579 299.3846 31.9180 14.7418 496990.9370 3.6048 3.6545
ENERGY: 45000 1662.1473 2361.2175 3218.0322 0.0000 -175375.5133 19864.0553 114.7351 0.0000 30868.8097 -117286.5163 300.1283 -148155.3259 -117245.3914 300.2198 -50.2845 6.6201 496302.3933 1.6319 1.5237
TCL: Setting parameter constraintScaling to 0.01953125
TCL: Running for 5000 steps
ETITLE: TS BOND ANGLE DIHED IMPRP ELECT VDW BOUNDARY MISC KINETIC TOTAL TEMP POTENTIAL TOTAL3 TEMPAVG PRESSURE GPRESSURE VOLUME PRESSAVG GPRESSAVG
ENERGY: 45000 1662.1473 2361.2175 3218.0322 0.0000 -175375.5133 19864.0553 57.3675 0.0000 30866.7696 -117345.9239 300.1085 -148212.6935 -117303.7935 300.1085 -57.5011 -8.0779 496302.3933 -57.5011 -8.0779
ENERGY: 46000 1674.5152 2395.3462 3202.3567 0.0000 -175751.7215 19882.1144 73.7542 0.0000 31141.1216 -117382.5131 302.7759 -148523.6348 -117332.6286 300.7510 -62.6004 -77.9987 497273.1550 6.4404 6.6037
ENERGY: 47000 1633.3722 2343.7215 3215.4021 0.0000 -176177.9549 20122.4090 75.0310 0.0000 30740.8253 -118047.1939 298.8840 -148788.0192 -118012.2200 299.1473 -85.7537 -105.5067 496705.3907 11.0174 11.4115
ENERGY: 48000 1624.7592 2370.8972 3206.5414 0.0000 -175967.7063 19977.2580 78.5788 0.0000 30650.4259 -118059.2458 298.0050 -148709.6717 -118019.7931 298.8282 27.1307 22.5339 495650.5173 2.2525 3.0479
ENERGY: 49000 1610.4382 2425.3026 3207.6869 0.0000 -176028.0522 20135.2719 80.0406 0.0000 30791.5177 -117777.7943 299.3768 -148569.3120 -117722.8985 299.0890 3.1005 35.2097 496909.5536 10.5357 10.2043
ENERGY: 50000 1647.0420 2392.8323 3199.1558 0.0000 -176024.6133 20228.7068 88.5347 0.0000 30604.3166 -117864.0252 297.5567 -148468.3418 -117818.5738 299.9310 36.2114 85.1815 496161.1268 -8.5748 -8.2926
TCL: Setting parameter constraintScaling to 0
TCL: Running for 5000 steps
ETITLE: TS BOND ANGLE DIHED IMPRP ELECT VDW BOUNDARY MISC KINETIC TOTAL TEMP POTENTIAL TOTAL3 TEMPAVG PRESSURE GPRESSURE VOLUME PRESSAVG GPRESSAVG
ENERGY: 50000 1647.0420 2392.8323 3199.1558 0.0000 -176024.6133 20228.7068 0.0000 0.0000 30602.2405 -117954.6359 297.5365 -148556.8764 -117908.7566 297.5365 34.8194 77.6816 496161.1268 34.8194 77.6816
ENERGY: 51000 1657.3071 2498.8129 3207.3762 0.0000 -175841.1990 19953.2563 0.0000 0.0000 30971.4147 -117553.0319 301.1259 -148524.4466 -117504.2325 299.8846 -145.6019 -113.8673 495900.4852 -8.5586 -9.5843
ENERGY: 52000 1629.3677 2436.5152 3215.9359 0.0000 -175906.7943 20132.6531 0.0000 0.0000 30850.5817 -117641.7408 299.9511 -148492.3225 -117592.4127 300.0723 -107.8724 -29.3589 498057.3940 13.0994 13.2783
ENERGY: 53000 1644.0889 2354.1823 3224.0633 0.0000 -175453.2196 19874.6194 0.0000 0.0000 30912.0910 -117444.1747 300.5491 -148356.2657 -117402.1215 300.2580 -128.9204 -72.6084 497139.5445 -10.2806 -9.6306
ENERGY: 54000 1553.4509 2390.4736 3226.3244 0.0000 -176170.9589 20155.8667 0.0000 0.0000 30888.5288 -117956.3145 300.3200 -148844.8433 -117911.8256 299.8212 -124.6474 -26.3616 497788.2184 11.5912 11.4347
ENERGY: 55000 1666.4141 2434.1928 3174.2269 0.0000 -176765.2753 20503.8542 0.0000 0.0000 30658.3168 -118328.2706 298.0818 -148986.5874 -118286.4986 297.7629 63.1907 39.3642 496615.4147 6.0528 5.9061
