Info: SIMULATION PARAMETERS:
Info: TIMESTEP               2
Info: NUMBER OF STEPS        0
Info: STEPS PER CYCLE        10
Info: PERIODIC CELL BASIS 1  72.449 0 0
Info: PERIODIC CELL BASIS 2  0 93.247 0
Info: PERIODIC CELL BASIS 3  0 0 79.185
Info: PERIODIC CELL CENTER   -0.248 -0.156 -0.047
Info: WRAPPING WATERS AROUND PERIODIC BOUNDARIES ON OUTPUT.
Info: WRAPPING ALL CLUSTERS AROUND PERIODIC BOUNDARIES ON OUTPUT.
Info: FIRST LDB TIMESTEP     50
Info: LAST LDB TIMESTEP     -1
Info: HOM BACKGROUND SCALING 1
Info: PME BACKGROUND SCALING 1
Info: MIN ATOMS PER PATCH    40
Info: INITIAL TEMPERATURE    0
Info: CENTER OF MASS MOVING INITIALLY? NO
Info: DIELECTRIC             1
Info: EXCLUDE                SCALED ONE-FOUR
Info: 1-4 ELECTROSTATICS SCALED BY 0.833333
Info: MODIFIED 1-4 VDW PARAMETERS WILL BE USED
Info: NO DCD TRAJECTORY OUTPUT
Info: NO EXTENDED SYSTEM TRAJECTORY OUTPUT
Info: NO VELOCITY DCD OUTPUT
Info: NO FORCE DCD OUTPUT
Info: OUTPUT FILENAME        ../replicas/rep79/equilibration/eq0
Info: NO RESTART FILE
Info: SWITCHING ACTIVE
Info: SWITCHING ON           10
Info: SWITCHING OFF          12
Info: PAIRLIST DISTANCE      13.5
Info: PAIRLIST SHRINK RATE   0.01
Info: PAIRLIST GROW RATE     0.01
Info: PAIRLIST TRIGGER       0.3
Info: PAIRLISTS PER CYCLE    2
Info: PAIRLISTS ENABLED
Info: MARGIN                 0
Info: HYDROGEN GROUP CUTOFF  2.5
Info: PATCH DIMENSION        16
Info: ENERGY OUTPUT STEPS    500
Info: CROSSTERM ENERGY INCLUDED IN DIHEDRAL
Info: TIMING OUTPUT STEPS    5000
Info: PRESSURE OUTPUT STEPS  500
Info: HARMONIC CONSTRAINTS ACTIVE
Info: HARMONIC CONS EXP      2
Info: HARMONIC CONS SCALING  10
Info: CONJUGATE GRADIENT MINIMIZATION ACTIVE
Info: LINE MINIMIZATION GOAL = 0.001
Info: BABY STEP SIZE = 0.01
Info: TINY STEP SIZE = 1e-06
Info: PARTICLE MESH EWALD (PME) ACTIVE
Info: PME TOLERANCE               1e-06
Info: PME EWALD COEFFICIENT       0.257952
Info: PME INTERPOLATION ORDER     4
Info: PME GRID DIMENSIONS         80 96 80
Info: PME MAXIMUM GRID SPACING    1
Info: FULL ELECTROSTATIC EVALUATION FREQUENCY      2
Info: USING VERLET I (r-RESPA) MTS SCHEME.
Info: C1 SPLITTING OF LONG RANGE ELECTROSTATICS
Info: PLACING ATOMS IN PATCHES BY HYDROGEN GROUPS
Info: RIGID BONDS TO HYDROGEN : ALL
Info:         ERROR TOLERANCE : 1e-05
Info:          MAX ITERATIONS : 100
Info: RIGID WATER USING SETTLE ALGORITHM
Info: RANDOM NUMBER SEED     1503692770
Info: USE HYDROGEN BONDS?    NO
Info: Using AMBER format force field!
Info: AMBER PARM FILE        ../build/complex.top
Info: COORDINATE PDB         ../build/complex.pdb
Info: Exclusions in PARM file will be ignored!
Info: SCNB (VDW SCALING)     2
Info: USING ARITHMETIC MEAN TO COMBINE L-J SIGMA PARAMETERS
Info: SUMMARY OF PARAMETERS:
Info: 71 BONDS
Info: 145 ANGLES
Info: 76 DIHEDRAL
Info: 0 IMPROPER
Info: 0 CROSSTERM
Info: 0 VDW
Info: 190 VDW_PAIRS
Info: 0 NBTHOLE_PAIRS
Info: STRUCTURE SUMMARY:
Info: 49394 ATOMS
Info: 49448 BONDS
Info: 8698 ANGLES
Info: 18780 DIHEDRALS
Info: 0 IMPROPERS
Info: 0 CROSSTERMS
Info: 0 EXCLUSIONS
Info: 2336 CONSTRAINTS
Info: 47058 RIGID BONDS
Info: 101124 DEGREES OF FREEDOM
Info: 17225 HYDROGEN GROUPS
Info: 4 ATOMS IN LARGEST HYDROGEN GROUP
Info: 17225 MIGRATION GROUPS
Info: 4 ATOMS IN LARGEST MIGRATION GROUP
Info: TOTAL MASS = 301478 amu
Info: TOTAL CHARGE = 1.00115e-05 e
Info: MASS DENSITY = 0.935846 g/cm^3
Info: ATOM DENSITY = 0.0923345 atoms/A^3
Info: ADDED 70656 IMPLICIT EXCLUSIONS
Info: NONBONDED TABLE R-SQUARED SPACING: 0.0625
Info: NONBONDED TABLE SIZE: 769 POINTS
Info: REMOVING COM VELOCITY 0 0 0
TCL: Minimizing for 100 steps
ETITLE: TS BOND ANGLE DIHED IMPRP ELECT VDW BOUNDARY MISC KINETIC TOTAL TEMP POTENTIAL TOTAL3 TEMPAVG PRESSURE GPRESSURE VOLUME PRESSAVG GPRESSAVG
ENERGY: 0 155.4176 1012.2698 2855.7272 0.0000 -154496.7911 207729.2052 0.0468 0.0000 0.0000 57255.8755 0.0000 57255.8755 57255.8755 0.0000 116350.2532 86546.1670 534946.2959 116350.2532 86546.1670
ENERGY: 20 304.7550 935.7911 2893.4663 0.0000 -158672.9403 17936.6594 143.9454 0.0000 0.0000 -136458.3230 0.0000 -136458.3230 -136458.3230 0.0000 16523.9387 -239.4558 534946.2959 16523.9387 -239.4558
ENERGY: 40 198.7433 799.5726 2896.9273 0.0000 -162811.4530 16417.9537 221.3030 0.0000 0.0000 -142276.9532 0.0000 -142276.9532 -142276.9532 0.0000 15011.2704 -2135.4697 534946.2959 15011.2704 -2135.4697
ENERGY: 60 130.5284 715.3440 2898.2166 0.0000 -167496.1550 15446.7542 315.2796 0.0000 0.0000 -147990.0322 0.0000 -147990.0322 -147990.0322 0.0000 13793.8841 -3799.3981 534946.2959 13793.8841 -3799.3981
ENERGY: 80 431.2742 765.6309 2904.3785 0.0000 -169937.5295 15121.1523 372.0122 0.0000 0.0000 -150343.0813 0.0000 -150343.0813 -150343.0813 0.0000 13270.3308 -4577.2449 534946.2959 13270.3308 -4577.2449
ENERGY: 100 129.7142 708.0651 2904.2780 0.0000 -171050.0650 15018.6536 384.1999 0.0000 0.0000 -151905.1541 0.0000 -151905.1541 -151905.1541 0.0000 13092.9130 -4843.6313 534946.2959 13092.9130 -4843.6313
TCL: Setting parameter constraintScaling to 5.0
TCL: Minimizing for 100 steps
ETITLE: TS BOND ANGLE DIHED IMPRP ELECT VDW BOUNDARY MISC KINETIC TOTAL TEMP POTENTIAL TOTAL3 TEMPAVG PRESSURE GPRESSURE VOLUME PRESSAVG GPRESSAVG
ENERGY: 100 129.7142 708.0651 2904.2780 0.0000 -171050.0649 15018.6536 192.1000 0.0000 0.0000 -152097.2540 0.0000 -152097.2540 -152097.2540 0.0000 13703.5082 -22944.4541 534946.2959 13703.5082 -22944.4541
ENERGY: 120 118.6824 680.2876 2909.9066 0.0000 -172396.3127 14830.1206 259.9549 0.0000 0.0000 -153597.3605 0.0000 -153597.3605 -153597.3605 0.0000 13320.9474 -4756.3071 534946.2959 13320.9474 -4756.3071
ENERGY: 140 109.1489 671.1472 2912.0863 0.0000 -174830.2486 14716.1440 337.7303 0.0000 0.0000 -156083.9919 0.0000 -156083.9919 -156083.9919 0.0000 12908.9603 -5423.1438 534946.2959 12908.9603 -5423.1438
ENERGY: 160 303.0132 691.2582 2915.1771 0.0000 -176082.5809 14739.2637 369.8387 0.0000 0.0000 -157064.0299 0.0000 -157064.0299 -157064.0299 0.0000 12780.5515 -5676.3328 534946.2959 12780.5515 -5676.3328
ENERGY: 180 182.1938 640.7522 2917.0632 0.0000 -177289.3697 14805.0541 391.8963 0.0000 0.0000 -158352.4101 0.0000 -158352.4101 -158352.4101 0.0000 12715.3624 -5865.5121 534946.2959 12715.3624 -5865.5121
ENERGY: 200 200.8186 672.8192 2923.8875 0.0000 -179263.1600 15029.6956 438.8871 0.0000 0.0000 -159997.0520 0.0000 -159997.0520 -159997.0520 0.0000 12652.1253 -6141.9185 534946.2959 12652.1253 -6141.9185
TCL: Setting parameter constraintScaling to 2.5
TCL: Minimizing for 100 steps
ETITLE: TS BOND ANGLE DIHED IMPRP ELECT VDW BOUNDARY MISC KINETIC TOTAL TEMP POTENTIAL TOTAL3 TEMPAVG PRESSURE GPRESSURE VOLUME PRESSAVG GPRESSAVG
ENERGY: 200 200.8186 672.8192 2923.8875 0.0000 -179263.1600 15029.6956 219.4436 0.0000 0.0000 -160216.4956 0.0000 -160216.4956 -160216.4956 0.0000 13194.5959 -25226.9573 534946.2959 13194.5959 -25226.9573
ENERGY: 220 129.4464 648.4291 2922.2167 0.0000 -180050.6338 15072.6193 269.1071 0.0000 0.0000 -161008.8151 0.0000 -161008.8151 -161008.8151 0.0000 13073.4360 -5815.6607 534946.2959 13073.4360 -5815.6607
ENERGY: 240 148.7122 630.0554 2922.2779 0.0000 -182011.2990 15361.3194 366.0796 0.0000 0.0000 -162582.8545 0.0000 -162582.8545 -162582.8545 0.0000 12906.9815 -6168.3471 534946.2959 12906.9815 -6168.3471
ENERGY: 260 225.6446 662.3434 2925.6657 0.0000 -183828.8056 15792.4932 453.5384 0.0000 0.0000 -163769.1203 0.0000 -163769.1203 -163769.1203 0.0000 12946.2739 -6341.0082 534946.2959 12946.2739 -6341.0082
ENERGY: 280 121.4616 633.4455 2921.9920 0.0000 -185453.7582 16338.9199 504.9871 0.0000 0.0000 -164932.9522 0.0000 -164932.9522 -164932.9522 0.0000 13109.5907 -6351.5490 534946.2959 13109.5907 -6351.5490
ENERGY: 300 128.5975 639.3505 2917.3076 0.0000 -186300.6537 16605.2170 438.4806 0.0000 0.0000 -165571.7004 0.0000 -165571.7004 -165571.7004 0.0000 13379.6944 -6182.6293 534946.2959 13379.6944 -6182.6293
TCL: Setting parameter constraintScaling to 1.25
TCL: Minimizing for 100 steps
ETITLE: TS BOND ANGLE DIHED IMPRP ELECT VDW BOUNDARY MISC KINETIC TOTAL TEMP POTENTIAL TOTAL3 TEMPAVG PRESSURE GPRESSURE VOLUME PRESSAVG GPRESSAVG
ENERGY: 300 128.5975 639.3505 2917.3076 0.0000 -186300.6537 16605.2170 219.2403 0.0000 0.0000 -165790.9407 0.0000 -165790.9407 -165790.9407 0.0000 13806.8434 -26238.1784 534946.2959 13806.8434 -26238.1784
ENERGY: 320 291.7884 648.2349 2914.1963 0.0000 -186935.7004 16716.7621 274.3692 0.0000 0.0000 -166090.3496 0.0000 -166090.3496 -166090.3496 0.0000 13710.0931 -5935.9404 534946.2959 13710.0931 -5935.9404
ENERGY: 340 343.6079 664.5318 2903.9716 0.0000 -188173.7236 17096.6593 324.4607 0.0000 0.0000 -166840.4923 0.0000 -166840.4923 -166840.4923 0.0000 13771.9569 -6000.8655 534946.2959 13771.9569 -6000.8655
ENERGY: 360 139.4013 667.1651 2913.4628 0.0000 -190061.5383 17727.0317 428.0367 0.0000 0.0000 -168186.4407 0.0000 -168186.4407 -168186.4407 0.0000 13897.8487 -6084.3973 534946.2959 13897.8487 -6084.3973
ENERGY: 380 139.5759 647.3561 2892.5925 0.0000 -190517.7464 17942.8548 385.8257 0.0000 0.0000 -168509.5414 0.0000 -168509.5414 -168509.5414 0.0000 14077.4521 -5941.4903 534946.2959 14077.4521 -5941.4903
ENERGY: 400 159.8253 623.5694 2903.4734 0.0000 -192051.8254 18561.8874 365.0760 0.0000 0.0000 -169437.9939 0.0000 -169437.9939 -169437.9939 0.0000 14477.7632 -5737.6365 534946.2959 14477.7632 -5737.6365
TCL: Setting parameter constraintScaling to 0.625
TCL: Minimizing for 100 steps
ETITLE: TS BOND ANGLE DIHED IMPRP ELECT VDW BOUNDARY MISC KINETIC TOTAL TEMP POTENTIAL TOTAL3 TEMPAVG PRESSURE GPRESSURE VOLUME PRESSAVG GPRESSAVG
ENERGY: 400 159.8253 623.5694 2903.4734 0.0000 -192051.8254 18561.8874 182.5380 0.0000 0.0000 -169620.5319 0.0000 -169620.5319 -169620.5319 0.0000 14770.3571 -26648.7596 534946.2959 14770.3571 -26648.7596
ENERGY: 420 158.6456 626.6367 2890.3140 0.0000 -192556.7900 18669.9641 220.8050 0.0000 0.0000 -169990.4245 0.0000 -169990.4245 -169990.4245 0.0000 14720.7910 -5565.0001 534946.2959 14720.7910 -5565.0001
ENERGY: 440 303.1735 662.8370 2884.8786 0.0000 -193662.8429 19055.8209 279.5538 0.0000 0.0000 -170476.5790 0.0000 -170476.5790 -170476.5790 0.0000 14773.6557 -5618.4849 534946.2959 14773.6557 -5618.4849
ENERGY: 460 155.9262 649.8846 2879.6163 0.0000 -194433.0061 19341.0219 313.7743 0.0000 0.0000 -171092.7829 0.0000 -171092.7829 -171092.7829 0.0000 14870.4670 -5609.0564 534946.2959 14870.4670 -5609.0564
ENERGY: 480 154.7066 653.7014 2885.9523 0.0000 -195112.4921 19616.6493 295.0613 0.0000 0.0000 -171506.4211 0.0000 -171506.4211 -171506.4211 0.0000 15116.2122 -5461.0502 534946.2959 15116.2122 -5461.0502
ENERGY: 500 188.2878 641.5222 2879.2670 0.0000 -196126.8796 20069.1484 300.9434 0.0000 0.0000 -172047.7107 0.0000 -172047.7107 -172047.7107 0.0000 15299.8489 -5368.5869 534946.2959 15299.8489 -5368.5869
TCL: Setting parameter constraintScaling to 0.3125
TCL: Minimizing for 100 steps
ETITLE: TS BOND ANGLE DIHED IMPRP ELECT VDW BOUNDARY MISC KINETIC TOTAL TEMP POTENTIAL TOTAL3 TEMPAVG PRESSURE GPRESSURE VOLUME PRESSAVG GPRESSAVG
ENERGY: 500 188.2878 641.5222 2879.2670 0.0000 -196126.8796 20069.1484 150.4717 0.0000 0.0000 -172198.1824 0.0000 -172198.1824 -172198.1824 0.0000 15496.5453 -26884.1771 534946.2959 15496.5453 -26884.1771
ENERGY: 520 311.0700 665.1016 2872.5356 0.0000 -196460.2907 20138.0677 170.1845 0.0000 0.0000 -172303.3312 0.0000 -172303.3312 -172303.3312 0.0000 15458.2185 -5253.9524 534946.2959 15458.2185 -5253.9524
ENERGY: 540 160.2484 662.5009 2864.7250 0.0000 -196938.5333 20301.9368 194.4706 0.0000 0.0000 -172754.6517 0.0000 -172754.6517 -172754.6517 0.0000 15483.2914 -5281.4722 534946.2959 15483.2914 -5281.4722
ENERGY: 560 182.6625 711.4681 2881.4169 0.0000 -197807.8697 20619.4577 235.7890 0.0000 0.0000 -173177.0755 0.0000 -173177.0755 -173177.0755 0.0000 15534.7198 -5323.0811 534946.2959 15534.7198 -5323.0811
ENERGY: 580 206.8718 698.7433 2859.3037 0.0000 -198227.5648 20778.3872 227.3274 0.0000 0.0000 -173456.9314 0.0000 -173456.9314 -173456.9314 0.0000 15669.3248 -5249.5884 534946.2959 15669.3248 -5249.5884
ENERGY: 600 147.9403 639.8737 2863.9669 0.0000 -198462.0404 20853.4245 222.3016 0.0000 0.0000 -173734.5333 0.0000 -173734.5333 -173734.5333 0.0000 15765.6282 -5180.6307 534946.2959 15765.6282 -5180.6307
TCL: Setting parameter constraintScaling to 0.15625
TCL: Minimizing for 100 steps
ETITLE: TS BOND ANGLE DIHED IMPRP ELECT VDW BOUNDARY MISC KINETIC TOTAL TEMP POTENTIAL TOTAL3 TEMPAVG PRESSURE GPRESSURE VOLUME PRESSAVG GPRESSAVG
ENERGY: 600 147.9403 639.8737 2863.9669 0.0000 -198462.0404 20853.4245 111.1508 0.0000 0.0000 -173845.6841 0.0000 -173845.6841 -173845.6841 0.0000 15886.4067 -27038.1069 534946.2959 15886.4067 -27038.1069
ENERGY: 620 177.3208 647.2240 2854.4271 0.0000 -198867.3425 20996.4425 121.9560 0.0000 0.0000 -174069.9722 0.0000 -174069.9722 -174069.9722 0.0000 15911.8477 -5076.5575 534946.2959 15911.8477 -5076.5575
ENERGY: 640 156.3595 663.3322 2861.2596 0.0000 -199410.3676 21183.9427 131.7506 0.0000 0.0000 -174413.7230 0.0000 -174413.7230 -174413.7230 0.0000 15958.9111 -5078.6546 534946.2959 15958.9111 -5078.6546
ENERGY: 660 281.0425 677.9319 2849.7950 0.0000 -199962.7495 21384.5693 137.7699 0.0000 0.0000 -174631.6409 0.0000 -174631.6409 -174631.6409 0.0000 16106.5082 -5032.3855 534946.2959 16106.5082 -5032.3855
ENERGY: 680 177.2519 646.5973 2847.5604 0.0000 -200897.7535 21749.6748 149.7312 0.0000 0.0000 -175326.9380 0.0000 -175326.9380 -175326.9380 0.0000 16231.6158 -4978.4039 534946.2959 16231.6158 -4978.4039
ENERGY: 700 162.0150 642.5805 2839.1336 0.0000 -201396.2484 21953.8487 159.9652 0.0000 0.0000 -175638.7053 0.0000 -175638.7053 -175638.7053 0.0000 16341.9068 -4934.3304 534946.2959 16341.9068 -4934.3304
TCL: Setting parameter constraintScaling to 0.078125
TCL: Minimizing for 100 steps
ETITLE: TS BOND ANGLE DIHED IMPRP ELECT VDW BOUNDARY MISC KINETIC TOTAL TEMP POTENTIAL TOTAL3 TEMPAVG PRESSURE GPRESSURE VOLUME PRESSAVG GPRESSAVG
ENERGY: 700 162.0150 642.5805 2839.1336 0.0000 -201396.2484 21953.8487 79.9826 0.0000 0.0000 -175718.6879 0.0000 -175718.6879 -175718.6879 0.0000 16416.6586 -27208.9269 534946.2959 16416.6586 -27208.9269
ENERGY: 720 155.8274 646.5556 2830.1225 0.0000 -201769.3910 22106.9847 84.5852 0.0000 0.0000 -175945.3156 0.0000 -175945.3156 -175945.3156 0.0000 16491.9523 -4829.8655 534946.2959 16491.9523 -4829.8655
ENERGY: 740 166.9100 649.9609 2836.2392 0.0000 -201904.5783 22141.2273 86.0777 0.0000 0.0000 -176024.1632 0.0000 -176024.1632 -176024.1632 0.0000 16488.7277 -4847.8129 534946.2959 16488.7277 -4847.8129
ENERGY: 760 154.6337 662.7164 2828.7096 0.0000 -202907.7401 22549.0784 93.9375 0.0000 0.0000 -176618.6645 0.0000 -176618.6645 -176618.6645 0.0000 16744.0223 -4722.3871 534946.2959 16744.0223 -4722.3871
ENERGY: 780 231.1090 672.6271 2824.0033 0.0000 -203347.9697 22759.8224 100.9241 0.0000 0.0000 -176759.4838 0.0000 -176759.4838 -176759.4838 0.0000 16788.4567 -4719.9669 534946.2959 16788.4567 -4719.9669
ENERGY: 800 182.0368 679.6179 2823.8277 0.0000 -203922.4322 22993.0461 104.6765 0.0000 0.0000 -177139.2271 0.0000 -177139.2271 -177139.2271 0.0000 16942.5501 -4643.3126 534946.2959 16942.5501 -4643.3126
TCL: Setting parameter constraintScaling to 0.0390625
TCL: Minimizing for 100 steps
ETITLE: TS BOND ANGLE DIHED IMPRP ELECT VDW BOUNDARY MISC KINETIC TOTAL TEMP POTENTIAL TOTAL3 TEMPAVG PRESSURE GPRESSURE VOLUME PRESSAVG GPRESSAVG
ENERGY: 800 182.0368 679.6179 2823.8277 0.0000 -203922.4322 22993.0461 52.3383 0.0000 0.0000 -177191.5654 0.0000 -177191.5654 -177191.5654 0.0000 16986.5856 -27236.0858 534946.2959 16986.5856 -27236.0858
ENERGY: 820 161.0908 662.1243 2820.0827 0.0000 -204080.0823 23040.8017 53.2122 0.0000 0.0000 -177342.7707 0.0000 -177342.7707 -177342.7707 0.0000 17027.2267 -4590.4683 534946.2959 17027.2267 -4590.4683
ENERGY: 840 157.5997 649.4707 2819.0361 0.0000 -204285.1630 23125.2873 53.9832 0.0000 0.0000 -177479.7860 0.0000 -177479.7860 -177479.7860 0.0000 17055.5875 -4578.5975 534946.2959 17055.5875 -4578.5975
ENERGY: 860 203.9530 703.1843 2826.7253 0.0000 -204691.4264 23324.4113 57.0082 0.0000 0.0000 -177576.1444 0.0000 -177576.1444 -177576.1444 0.0000 17154.6050 -4539.4570 534946.2959 17154.6050 -4539.4570
ENERGY: 880 167.9730 687.8209 2823.0579 0.0000 -204928.5742 23446.7170 58.9401 0.0000 0.0000 -177744.0654 0.0000 -177744.0654 -177744.0654 0.0000 17205.8943 -4492.6381 534946.2959 17205.8943 -4492.6381
ENERGY: 900 157.8754 656.3811 2813.3657 0.0000 -205031.8284 23449.1694 58.9782 0.0000 0.0000 -177896.0588 0.0000 -177896.0588 -177896.0588 0.0000 17208.4995 -4508.3169 534946.2959 17208.4995 -4508.3169
TCL: Setting parameter constraintScaling to 0.01953125
TCL: Minimizing for 100 steps
ETITLE: TS BOND ANGLE DIHED IMPRP ELECT VDW BOUNDARY MISC KINETIC TOTAL TEMP POTENTIAL TOTAL3 TEMPAVG PRESSURE GPRESSURE VOLUME PRESSAVG GPRESSAVG
ENERGY: 900 157.8754 656.3811 2813.3657 0.0000 -205031.8284 23449.1694 29.4891 0.0000 0.0000 -177925.5478 0.0000 -177925.5478 -177925.5478 0.0000 17232.3839 -27259.1682 534946.2959 17232.3839 -27259.1682
ENERGY: 920 166.5747 650.3739 2814.3786 0.0000 -205171.4965 23504.6363 29.7703 0.0000 0.0000 -178005.7628 0.0000 -178005.7628 -178005.7628 0.0000 17240.6541 -4476.0434 534946.2959 17240.6541 -4476.0434
ENERGY: 940 172.3807 659.0439 2812.0327 0.0000 -205637.8002 23709.5254 31.4499 0.0000 0.0000 -178253.3676 0.0000 -178253.3676 -178253.3676 0.0000 17365.0012 -4420.0656 534946.2959 17365.0012 -4420.0656
ENERGY: 960 177.4307 657.9320 2806.4638 0.0000 -206144.6255 23950.7697 33.6312 0.0000 0.0000 -178518.3980 0.0000 -178518.3980 -178518.3980 0.0000 17474.1761 -4370.2010 534946.2959 17474.1761 -4370.2010
ENERGY: 980 163.7936 656.6760 2809.9071 0.0000 -206237.2189 23980.5698 33.6463 0.0000 0.0000 -178592.6260 0.0000 -178592.6260 -178592.6260 0.0000 17501.7868 -4352.0329 534946.2959 17501.7868 -4352.0329
ENERGY: 1000 177.0822 654.2566 2807.9445 0.0000 -206660.0819 24175.5393 35.1262 0.0000 0.0000 -178810.1331 0.0000 -178810.1331 -178810.1331 0.0000 17570.5825 -4316.4816 534946.2959 17570.5825 -4316.4816
TCL: Setting parameter constraintScaling to 0
TCL: Minimizing for 5000 steps
ETITLE: TS BOND ANGLE DIHED IMPRP ELECT VDW BOUNDARY MISC KINETIC TOTAL TEMP POTENTIAL TOTAL3 TEMPAVG PRESSURE GPRESSURE VOLUME PRESSAVG GPRESSAVG
ENERGY: 1000 177.0822 654.2566 2807.9445 0.0000 -206660.0819 24175.5393 0.0000 0.0000 0.0000 -178845.2593 0.0000 -178845.2593 -178845.2593 0.0000 17597.5019 -27281.6536 534946.2959 17597.5019 -27281.6536
ENERGY: 2000 166.4420 659.1363 2803.5279 0.0000 -214625.1299 27814.9761 0.0000 0.0000 0.0000 -183181.0476 0.0000 -183181.0476 -183181.0476 0.0000 19565.2533 -3219.1747 534946.2959 19565.2533 -3219.1747
ENERGY: 3000 166.4914 662.9424 2797.1348 0.0000 -217452.9938 28852.6719 0.0000 0.0000 0.0000 -184973.7534 0.0000 -184973.7534 -184973.7534 0.0000 20099.6822 -2982.3161 534946.2959 20099.6822 -2982.3161
ENERGY: 4000 165.2931 662.0269 2789.7947 0.0000 -218814.4340 29422.9648 0.0000 0.0000 0.0000 -185774.3545 0.0000 -185774.3545 -185774.3545 0.0000 20401.7390 -2831.5973 534946.2959 20401.7390 -2831.5973
ENERGY: 5000 187.5328 666.8589 2788.8047 0.0000 -219457.7870 29670.0550 0.0000 0.0000 0.0000 -186144.5356 0.0000 -186144.5356 -186144.5356 0.0000 20512.8749 -2785.3922 534946.2959 20512.8749 -2785.3922
ENERGY: 6000 166.2634 662.3620 2791.6052 0.0000 -219797.3610 29766.5726 0.0000 0.0000 0.0000 -186410.5578 0.0000 -186410.5578 -186410.5578 0.0000 20574.2353 -2755.6358 534946.2959 20574.2353 -2755.6358
