Info: SIMULATION PARAMETERS:
Info: TIMESTEP               2
Info: NUMBER OF STEPS        0
Info: STEPS PER CYCLE        10
Info: PERIODIC CELL BASIS 1  72.449 0 0
Info: PERIODIC CELL BASIS 2  0 93.247 0
Info: PERIODIC CELL BASIS 3  0 0 79.185
Info: PERIODIC CELL CENTER   -0.248 -0.156 -0.047
Info: WRAPPING WATERS AROUND PERIODIC BOUNDARIES ON OUTPUT.
Info: WRAPPING ALL CLUSTERS AROUND PERIODIC BOUNDARIES ON OUTPUT.
Info: FIRST LDB TIMESTEP     50
Info: LAST LDB TIMESTEP     -1
Info: HOM BACKGROUND SCALING 1
Info: PME BACKGROUND SCALING 1
Info: MIN ATOMS PER PATCH    40
Info: INITIAL TEMPERATURE    0
Info: CENTER OF MASS MOVING INITIALLY? NO
Info: DIELECTRIC             1
Info: EXCLUDE                SCALED ONE-FOUR
Info: 1-4 ELECTROSTATICS SCALED BY 0.833333
Info: MODIFIED 1-4 VDW PARAMETERS WILL BE USED
Info: NO DCD TRAJECTORY OUTPUT
Info: NO EXTENDED SYSTEM TRAJECTORY OUTPUT
Info: NO VELOCITY DCD OUTPUT
Info: NO FORCE DCD OUTPUT
Info: OUTPUT FILENAME        ../replicas/rep57/equilibration/eq0
Info: NO RESTART FILE
Info: SWITCHING ACTIVE
Info: SWITCHING ON           10
Info: SWITCHING OFF          12
Info: PAIRLIST DISTANCE      13.5
Info: PAIRLIST SHRINK RATE   0.01
Info: PAIRLIST GROW RATE     0.01
Info: PAIRLIST TRIGGER       0.3
Info: PAIRLISTS PER CYCLE    2
Info: PAIRLISTS ENABLED
Info: MARGIN                 0
Info: HYDROGEN GROUP CUTOFF  2.5
Info: PATCH DIMENSION        16
Info: ENERGY OUTPUT STEPS    500
Info: CROSSTERM ENERGY INCLUDED IN DIHEDRAL
Info: TIMING OUTPUT STEPS    5000
Info: PRESSURE OUTPUT STEPS  500
Info: HARMONIC CONSTRAINTS ACTIVE
Info: HARMONIC CONS EXP      2
Info: HARMONIC CONS SCALING  10
Info: CONJUGATE GRADIENT MINIMIZATION ACTIVE
Info: LINE MINIMIZATION GOAL = 0.001
Info: BABY STEP SIZE = 0.01
Info: TINY STEP SIZE = 1e-06
Info: PARTICLE MESH EWALD (PME) ACTIVE
Info: PME TOLERANCE               1e-06
Info: PME EWALD COEFFICIENT       0.257952
Info: PME INTERPOLATION ORDER     4
Info: PME GRID DIMENSIONS         80 96 80
Info: PME MAXIMUM GRID SPACING    1
Info: FULL ELECTROSTATIC EVALUATION FREQUENCY      2
Info: USING VERLET I (r-RESPA) MTS SCHEME.
Info: C1 SPLITTING OF LONG RANGE ELECTROSTATICS
Info: PLACING ATOMS IN PATCHES BY HYDROGEN GROUPS
Info: RIGID BONDS TO HYDROGEN : ALL
Info:         ERROR TOLERANCE : 1e-05
Info:          MAX ITERATIONS : 100
Info: RIGID WATER USING SETTLE ALGORITHM
Info: RANDOM NUMBER SEED     1503690980
Info: USE HYDROGEN BONDS?    NO
Info: Using AMBER format force field!
Info: AMBER PARM FILE        ../build/complex.top
Info: COORDINATE PDB         ../build/complex.pdb
Info: Exclusions in PARM file will be ignored!
Info: SCNB (VDW SCALING)     2
Info: USING ARITHMETIC MEAN TO COMBINE L-J SIGMA PARAMETERS
Info: SUMMARY OF PARAMETERS:
Info: 71 BONDS
Info: 145 ANGLES
Info: 76 DIHEDRAL
Info: 0 IMPROPER
Info: 0 CROSSTERM
Info: 0 VDW
Info: 190 VDW_PAIRS
Info: 0 NBTHOLE_PAIRS
Info: STRUCTURE SUMMARY:
Info: 49394 ATOMS
Info: 49448 BONDS
Info: 8698 ANGLES
Info: 18780 DIHEDRALS
Info: 0 IMPROPERS
Info: 0 CROSSTERMS
Info: 0 EXCLUSIONS
Info: 2336 CONSTRAINTS
Info: 47058 RIGID BONDS
Info: 101124 DEGREES OF FREEDOM
Info: 17225 HYDROGEN GROUPS
Info: 4 ATOMS IN LARGEST HYDROGEN GROUP
Info: 17225 MIGRATION GROUPS
Info: 4 ATOMS IN LARGEST MIGRATION GROUP
Info: TOTAL MASS = 301478 amu
Info: TOTAL CHARGE = 1.00115e-05 e
Info: MASS DENSITY = 0.935846 g/cm^3
Info: ATOM DENSITY = 0.0923345 atoms/A^3
Info: ADDED 70656 IMPLICIT EXCLUSIONS
Info: NONBONDED TABLE R-SQUARED SPACING: 0.0625
Info: NONBONDED TABLE SIZE: 769 POINTS
Info: REMOVING COM VELOCITY 0 0 0
TCL: Minimizing for 100 steps
ETITLE: TS BOND ANGLE DIHED IMPRP ELECT VDW BOUNDARY MISC KINETIC TOTAL TEMP POTENTIAL TOTAL3 TEMPAVG PRESSURE GPRESSURE VOLUME PRESSAVG GPRESSAVG
ENERGY: 0 155.4176 1012.2698 2855.7272 0.0000 -154496.7911 207729.2052 0.0468 0.0000 0.0000 57255.8755 0.0000 57255.8755 57255.8755 0.0000 116350.2532 86546.1670 534946.2959 116350.2532 86546.1670
ENERGY: 20 304.7543 935.7911 2893.4663 0.0000 -158672.9400 17936.6597 143.9454 0.0000 0.0000 -136458.3233 0.0000 -136458.3233 -136458.3233 0.0000 16523.9391 -239.4554 534946.2959 16523.9391 -239.4554
ENERGY: 40 198.7449 799.5728 2896.9273 0.0000 -162811.4540 16417.9534 221.3030 0.0000 0.0000 -142276.9526 0.0000 -142276.9526 -142276.9526 0.0000 15011.2700 -2135.4702 534946.2959 15011.2700 -2135.4702
ENERGY: 60 130.5282 715.3440 2898.2166 0.0000 -167496.1590 15446.7536 315.2797 0.0000 0.0000 -147990.0370 0.0000 -147990.0370 -147990.0370 0.0000 13793.8833 -3799.3992 534946.2959 13793.8833 -3799.3992
ENERGY: 80 431.2736 765.6308 2904.3786 0.0000 -169937.5335 15121.1520 372.0123 0.0000 0.0000 -150343.0862 0.0000 -150343.0862 -150343.0862 0.0000 13270.3296 -4577.2467 534946.2959 13270.3296 -4577.2467
ENERGY: 100 119.3859 710.0600 2905.2591 0.0000 -171259.7168 14991.7867 387.3614 0.0000 0.0000 -152145.8638 0.0000 -152145.8638 -152145.8638 0.0000 13056.2646 -4908.1737 534946.2959 13056.2646 -4908.1737
TCL: Setting parameter constraintScaling to 5.0
TCL: Minimizing for 100 steps
ETITLE: TS BOND ANGLE DIHED IMPRP ELECT VDW BOUNDARY MISC KINETIC TOTAL TEMP POTENTIAL TOTAL3 TEMPAVG PRESSURE GPRESSURE VOLUME PRESSAVG GPRESSAVG
ENERGY: 100 119.3859 710.0600 2905.2591 0.0000 -171259.7168 14991.7867 193.6807 0.0000 0.0000 -152339.5445 0.0000 -152339.5445 -152339.5445 0.0000 13672.7708 -23021.8198 534946.2959 13672.7708 -23021.8198
ENERGY: 120 108.8840 687.5843 2912.9267 0.0000 -172865.8792 14798.2709 281.1914 0.0000 0.0000 -154077.0219 0.0000 -154077.0219 -154077.0219 0.0000 13218.2558 -4906.0151 534946.2959 13218.2558 -4906.0151
ENERGY: 140 309.4468 708.8697 2913.8026 0.0000 -174236.6509 14731.4826 326.6389 0.0000 0.0000 -155246.4102 0.0000 -155246.4102 -155246.4102 0.0000 12971.5285 -5303.2387 534946.2959 12971.5285 -5303.2387
ENERGY: 160 265.1745 683.0959 2923.1705 0.0000 -176274.9181 14757.3106 382.8739 0.0000 0.0000 -157263.2927 0.0000 -157263.2927 -157263.2927 0.0000 12741.0122 -5739.9048 534946.2959 12741.0122 -5739.9048
ENERGY: 180 268.9338 744.0947 2928.5664 0.0000 -178995.0378 15023.4524 473.2832 0.0000 0.0000 -159556.7073 0.0000 -159556.7073 -159556.7073 0.0000 12521.6257 -6220.6673 534946.2959 12521.6257 -6220.6673
ENERGY: 200 238.8560 694.0946 2941.3601 0.0000 -181556.0475 15587.0005 546.2619 0.0000 0.0000 -161548.4745 0.0000 -161548.4745 -161548.4745 0.0000 12582.6436 -6427.8885 534946.2959 12582.6436 -6427.8885
TCL: Setting parameter constraintScaling to 2.5
TCL: Minimizing for 100 steps
ETITLE: TS BOND ANGLE DIHED IMPRP ELECT VDW BOUNDARY MISC KINETIC TOTAL TEMP POTENTIAL TOTAL3 TEMPAVG PRESSURE GPRESSURE VOLUME PRESSAVG GPRESSAVG
ENERGY: 200 238.8560 694.0946 2941.3601 0.0000 -181556.0475 15587.0005 273.1309 0.0000 0.0000 -161821.6054 0.0000 -161821.6054 -161821.6054 0.0000 13229.5453 -25658.6760 534946.2959 13229.5453 -25658.6760
ENERGY: 220 251.1286 679.9957 2933.0274 0.0000 -182082.9905 15470.8050 338.6242 0.0000 0.0000 -162409.4096 0.0000 -162409.4096 -162409.4096 0.0000 12967.7469 -6098.3301 534946.2959 12967.7469 -6098.3301
ENERGY: 240 139.2689 665.8217 2928.5988 0.0000 -182462.6290 15494.1611 343.6126 0.0000 0.0000 -162891.1659 0.0000 -162891.1659 -162891.1659 0.0000 13034.2552 -6111.1503 534946.2959 13034.2552 -6111.1503
ENERGY: 260 164.7723 683.7489 2921.6227 0.0000 -183941.0060 15800.2632 385.4261 0.0000 0.0000 -163985.1729 0.0000 -163985.1729 -163985.1729 0.0000 13031.8685 -6249.8245 534946.2959 13031.8685 -6249.8245
ENERGY: 280 169.0471 700.9267 2917.6078 0.0000 -185423.6909 16229.3031 454.8080 0.0000 0.0000 -164951.9980 0.0000 -164951.9980 -164951.9980 0.0000 13143.7860 -6341.7425 534946.2959 13143.7860 -6341.7425
ENERGY: 300 126.6711 639.5554 2916.2550 0.0000 -186095.8447 16446.3346 481.3801 0.0000 0.0000 -165485.6485 0.0000 -165485.6485 -165485.6485 0.0000 13207.9966 -6346.4002 534946.2959 13207.9966 -6346.4002
TCL: Setting parameter constraintScaling to 1.25
TCL: Minimizing for 100 steps
ETITLE: TS BOND ANGLE DIHED IMPRP ELECT VDW BOUNDARY MISC KINETIC TOTAL TEMP POTENTIAL TOTAL3 TEMPAVG PRESSURE GPRESSURE VOLUME PRESSAVG GPRESSAVG
ENERGY: 300 126.6711 639.5554 2916.2550 0.0000 -186095.8447 16446.3346 240.6900 0.0000 0.0000 -165726.3386 0.0000 -165726.3386 -165726.3386 0.0000 13656.3512 -26356.5158 534946.2959 13656.3512 -26356.5158
ENERGY: 320 132.0492 624.5868 2911.1526 0.0000 -186667.0794 16580.3088 272.7638 0.0000 0.0000 -166146.2183 0.0000 -166146.2183 -166146.2183 0.0000 13629.8406 -5977.8757 534946.2959 13629.8406 -5977.8757
ENERGY: 340 152.6661 625.3754 2910.7139 0.0000 -187382.0533 16812.7247 296.3169 0.0000 0.0000 -166584.2563 0.0000 -166584.2563 -166584.2563 0.0000 13646.8248 -6015.9454 534946.2959 13646.8248 -6015.9454
ENERGY: 360 137.3922 653.4346 2904.2729 0.0000 -189079.9241 17397.9851 361.7056 0.0000 0.0000 -167625.1336 0.0000 -167625.1336 -167625.1336 0.0000 13899.9135 -5991.0788 534946.2959 13899.9135 -5991.0788
ENERGY: 380 250.3325 658.9533 2906.2873 0.0000 -190436.3912 17934.7642 395.6865 0.0000 0.0000 -168290.3674 0.0000 -168290.3674 -168290.3674 0.0000 14030.9993 -5985.6675 534946.2959 14030.9993 -5985.6675
ENERGY: 400 139.1499 653.9510 2903.4175 0.0000 -190580.3973 17955.7760 397.2469 0.0000 0.0000 -168530.8560 0.0000 -168530.8560 -168530.8560 0.0000 14128.6683 -5936.4313 534946.2959 14128.6683 -5936.4313
TCL: Setting parameter constraintScaling to 0.625
TCL: Minimizing for 100 steps
ETITLE: TS BOND ANGLE DIHED IMPRP ELECT VDW BOUNDARY MISC KINETIC TOTAL TEMP POTENTIAL TOTAL3 TEMPAVG PRESSURE GPRESSURE VOLUME PRESSAVG GPRESSAVG
ENERGY: 400 139.1499 653.9510 2903.4175 0.0000 -190580.3973 17955.7760 198.6234 0.0000 0.0000 -168729.4795 0.0000 -168729.4795 -168729.4795 0.0000 14427.1821 -26634.6775 534946.2959 14427.1821 -26634.6775
ENERGY: 420 147.6155 631.6809 2900.9257 0.0000 -190838.5136 18022.5102 211.3607 0.0000 0.0000 -168924.4207 0.0000 -168924.4207 -168924.4207 0.0000 14339.4133 -5721.6973 534946.2959 14339.4133 -5721.6973
ENERGY: 440 264.6977 653.4274 2892.7964 0.0000 -192106.8091 18428.1516 259.6642 0.0000 0.0000 -169608.0717 0.0000 -169608.0717 -169608.0717 0.0000 14419.6100 -5771.8562 534946.2959 14419.6100 -5771.8562
ENERGY: 460 173.5327 649.2874 2885.5118 0.0000 -193037.1020 18773.5726 286.1400 0.0000 0.0000 -170269.0575 0.0000 -170269.0575 -170269.0575 0.0000 14627.2819 -5699.3882 534946.2959 14627.2819 -5699.3882
ENERGY: 480 255.5809 727.4669 2883.6734 0.0000 -193772.1053 19078.6769 300.8069 0.0000 0.0000 -170525.9003 0.0000 -170525.9003 -170525.9003 0.0000 14730.3802 -5673.9678 534946.2959 14730.3802 -5673.9678
ENERGY: 500 162.2718 654.4814 2884.5977 0.0000 -194302.5497 19289.9517 305.1299 0.0000 0.0000 -171006.1172 0.0000 -171006.1172 -171006.1172 0.0000 14821.6269 -5614.5826 534946.2959 14821.6269 -5614.5826
TCL: Setting parameter constraintScaling to 0.3125
TCL: Minimizing for 100 steps
ETITLE: TS BOND ANGLE DIHED IMPRP ELECT VDW BOUNDARY MISC KINETIC TOTAL TEMP POTENTIAL TOTAL3 TEMPAVG PRESSURE GPRESSURE VOLUME PRESSAVG GPRESSAVG
ENERGY: 500 162.2718 654.4814 2884.5977 0.0000 -194302.5497 19289.9517 152.5650 0.0000 0.0000 -171158.6821 0.0000 -171158.6821 -171158.6821 0.0000 15016.6292 -26922.5389 534946.2959 15016.6292 -26922.5389
ENERGY: 520 162.9705 655.3481 2880.6398 0.0000 -194587.9348 19371.9970 162.7572 0.0000 0.0000 -171354.2222 0.0000 -171354.2222 -171354.2222 0.0000 15054.8499 -5429.4707 534946.2959 15054.8499 -5429.4707
ENERGY: 540 160.4598 642.0052 2872.1076 0.0000 -195037.0076 19524.9823 176.1920 0.0000 0.0000 -171661.2606 0.0000 -171661.2606 -171661.2606 0.0000 15116.2589 -5425.0986 534946.2959 15116.2589 -5425.0986
ENERGY: 560 155.0026 642.3804 2871.0435 0.0000 -195820.5327 19816.2874 194.9996 0.0000 0.0000 -172140.8191 0.0000 -172140.8191 -172140.8191 0.0000 15238.3723 -5390.8630 534946.2959 15238.3723 -5390.8630
ENERGY: 580 181.1051 683.3209 2871.4171 0.0000 -196210.9573 19966.6402 202.2104 0.0000 0.0000 -172306.2636 0.0000 -172306.2636 -172306.2636 0.0000 15278.1494 -5399.0495 534946.2959 15278.1494 -5399.0495
ENERGY: 600 167.2530 661.8746 2863.4378 0.0000 -197532.8270 20496.8124 224.9160 0.0000 0.0000 -173118.5333 0.0000 -173118.5333 -173118.5333 0.0000 15558.9440 -5276.0492 534946.2959 15558.9440 -5276.0492
TCL: Setting parameter constraintScaling to 0.15625
TCL: Minimizing for 100 steps
ETITLE: TS BOND ANGLE DIHED IMPRP ELECT VDW BOUNDARY MISC KINETIC TOTAL TEMP POTENTIAL TOTAL3 TEMPAVG PRESSURE GPRESSURE VOLUME PRESSAVG GPRESSAVG
ENERGY: 600 167.2530 661.8746 2863.4378 0.0000 -197532.8270 20496.8124 112.4580 0.0000 0.0000 -173230.9912 0.0000 -173230.9912 -173230.9912 0.0000 15682.6575 -27015.9739 534946.2959 15682.6575 -27015.9739
ENERGY: 620 156.8721 648.5583 2862.2167 0.0000 -197714.8328 20559.3632 115.1225 0.0000 0.0000 -173372.7000 0.0000 -173372.7000 -173372.7000 0.0000 15711.1604 -5139.7395 534946.2959 15711.1604 -5139.7395
ENERGY: 640 165.5675 643.4272 2858.7324 0.0000 -198099.8284 20692.5088 123.3883 0.0000 0.0000 -173616.2041 0.0000 -173616.2041 -173616.2041 0.0000 15736.8648 -5147.5053 534946.2959 15736.8648 -5147.5053
ENERGY: 660 312.8090 775.3725 2864.1527 0.0000 -198488.8899 20823.4220 131.4555 0.0000 0.0000 -173581.6782 0.0000 -173581.6782 -173581.6782 0.0000 15766.7673 -5194.0489 534946.2959 15766.7673 -5194.0489
ENERGY: 680 226.7339 707.4707 2856.4465 0.0000 -198995.3493 21019.7711 137.0234 0.0000 0.0000 -174047.9037 0.0000 -174047.9037 -174047.9037 0.0000 15814.3700 -5164.4320 534946.2959 15814.3700 -5164.4320
ENERGY: 700 169.3464 649.6966 2849.7407 0.0000 -199734.9371 21309.6497 144.6819 0.0000 0.0000 -174611.8218 0.0000 -174611.8218 -174611.8218 0.0000 16064.7287 -5026.4329 534946.2959 16064.7287 -5026.4329
TCL: Setting parameter constraintScaling to 0.078125
TCL: Minimizing for 100 steps
ETITLE: TS BOND ANGLE DIHED IMPRP ELECT VDW BOUNDARY MISC KINETIC TOTAL TEMP POTENTIAL TOTAL3 TEMPAVG PRESSURE GPRESSURE VOLUME PRESSAVG GPRESSAVG
ENERGY: 700 169.3464 649.6966 2849.7407 0.0000 -199734.9371 21309.6497 72.3410 0.0000 0.0000 -174684.1628 0.0000 -174684.1628 -174684.1628 0.0000 16136.5521 -27091.9903 534946.2959 16136.5521 -27091.9903
ENERGY: 720 165.9409 651.7263 2843.1684 0.0000 -199949.6324 21379.2283 75.8593 0.0000 0.0000 -174833.7093 0.0000 -174833.7093 -174833.7093 0.0000 16126.7044 -4992.1636 534946.2959 16126.7044 -4992.1636
ENERGY: 740 176.8005 651.2534 2840.4813 0.0000 -200261.4064 21492.0286 79.7651 0.0000 0.0000 -175021.0775 0.0000 -175021.0775 -175021.0775 0.0000 16140.2458 -4999.8067 534946.2959 16140.2458 -4999.8067
ENERGY: 760 310.4886 769.2220 2854.8412 0.0000 -200855.6831 21709.4966 84.7456 0.0000 0.0000 -175126.8891 0.0000 -175126.8891 -175126.8891 0.0000 16221.6801 -4983.1524 534946.2959 16221.6801 -4983.1524
ENERGY: 780 257.4293 717.1425 2844.5792 0.0000 -201362.8803 21922.8010 87.2712 0.0000 0.0000 -175533.6571 0.0000 -175533.6571 -175533.6571 0.0000 16392.8760 -4903.8208 534946.2959 16392.8760 -4903.8208
ENERGY: 800 170.9538 658.9406 2839.5462 0.0000 -201514.2842 21981.7928 88.0932 0.0000 0.0000 -175774.9576 0.0000 -175774.9576 -175774.9576 0.0000 16430.3713 -4865.7607 534946.2959 16430.3713 -4865.7607
TCL: Setting parameter constraintScaling to 0.0390625
TCL: Minimizing for 100 steps
ETITLE: TS BOND ANGLE DIHED IMPRP ELECT VDW BOUNDARY MISC KINETIC TOTAL TEMP POTENTIAL TOTAL3 TEMPAVG PRESSURE GPRESSURE VOLUME PRESSAVG GPRESSAVG
ENERGY: 800 170.9538 658.9406 2839.5462 0.0000 -201514.2842 21981.7928 44.0466 0.0000 0.0000 -175819.0042 0.0000 -175819.0042 -175819.0042 0.0000 16471.0747 -27185.9248 534946.2959 16471.0747 -27185.9248
ENERGY: 820 161.0623 650.9783 2833.1154 0.0000 -201695.6383 22033.1069 45.7519 0.0000 0.0000 -175971.6235 0.0000 -175971.6235 -175971.6235 0.0000 16481.2183 -4836.5740 534946.2959 16481.2183 -4836.5740
ENERGY: 840 193.4435 696.8768 2834.6566 0.0000 -202293.2111 22296.2889 51.4446 0.0000 0.0000 -176220.5007 0.0000 -176220.5007 -176220.5007 0.0000 16545.8172 -4832.1417 534946.2959 16545.8172 -4832.1417
ENERGY: 860 164.5588 654.0369 2828.0441 0.0000 -202400.8422 22299.5223 49.7311 0.0000 0.0000 -176404.9489 0.0000 -176404.9489 -176404.9489 0.0000 16600.5733 -4802.8830 534946.2959 16600.5733 -4802.8830
ENERGY: 880 169.5640 670.4404 2833.9534 0.0000 -202921.6876 22549.3538 50.8568 0.0000 0.0000 -176647.5192 0.0000 -176647.5192 -176647.5192 0.0000 16779.4529 -4697.2777 534946.2959 16779.4529 -4697.2777
ENERGY: 900 168.2403 672.6973 2830.9724 0.0000 -203368.2431 22733.8147 53.4521 0.0000 0.0000 -176909.0663 0.0000 -176909.0663 -176909.0663 0.0000 16811.5944 -4684.8698 534946.2959 16811.5944 -4684.8698
TCL: Setting parameter constraintScaling to 0.01953125
TCL: Minimizing for 100 steps
ETITLE: TS BOND ANGLE DIHED IMPRP ELECT VDW BOUNDARY MISC KINETIC TOTAL TEMP POTENTIAL TOTAL3 TEMPAVG PRESSURE GPRESSURE VOLUME PRESSAVG GPRESSAVG
ENERGY: 900 168.2403 672.6973 2830.9724 0.0000 -203368.2431 22733.8147 26.7260 0.0000 0.0000 -176935.7924 0.0000 -176935.7924 -176935.7924 0.0000 16834.6313 -27269.3284 534946.2959 16834.6313 -27269.3284
ENERGY: 920 278.3911 658.1942 2820.2111 0.0000 -203609.0560 22813.2363 28.0751 0.0000 0.0000 -177010.9482 0.0000 -177010.9482 -177010.9482 0.0000 16840.0288 -4686.4368 534946.2959 16840.0288 -4686.4368
ENERGY: 940 190.9818 680.9746 2822.0373 0.0000 -203897.1740 22928.0866 29.4777 0.0000 0.0000 -177245.6160 0.0000 -177245.6160 -177245.6160 0.0000 16880.2393 -4677.7222 534946.2959 16880.2393 -4677.7222
ENERGY: 960 162.9020 667.8515 2816.3309 0.0000 -204043.2393 22992.0124 29.6346 0.0000 0.0000 -177374.5079 0.0000 -177374.5079 -177374.5079 0.0000 16994.4513 -4612.0397 534946.2959 16994.4513 -4612.0397
ENERGY: 980 202.3935 656.8895 2821.1650 0.0000 -204245.2580 23090.0357 29.4966 0.0000 0.0000 -177445.2778 0.0000 -177445.2778 -177445.2778 0.0000 17009.1536 -4602.1526 534946.2959 17009.1536 -4602.1526
ENERGY: 1000 192.4695 676.2916 2820.8779 0.0000 -204614.7211 23261.4210 30.3998 0.0000 0.0000 -177633.2613 0.0000 -177633.2613 -177633.2613 0.0000 17144.6439 -4521.0476 534946.2959 17144.6439 -4521.0476
TCL: Setting parameter constraintScaling to 0
TCL: Minimizing for 5000 steps
ETITLE: TS BOND ANGLE DIHED IMPRP ELECT VDW BOUNDARY MISC KINETIC TOTAL TEMP POTENTIAL TOTAL3 TEMPAVG PRESSURE GPRESSURE VOLUME PRESSAVG GPRESSAVG
ENERGY: 1000 192.4695 676.2916 2820.8779 0.0000 -204614.7211 23261.4210 0.0000 0.0000 0.0000 -177663.6611 0.0000 -177663.6611 -177663.6611 0.0000 17169.6936 -27230.7704 534946.2959 17169.6936 -27230.7704
ENERGY: 2000 326.7046 704.5780 2806.0213 0.0000 -214651.3030 27873.4894 0.0000 0.0000 0.0000 -182940.5097 0.0000 -182940.5097 -182940.5097 0.0000 19562.6678 -3229.7438 534946.2959 19562.6678 -3229.7438
ENERGY: 3000 174.4387 672.2050 2792.1971 0.0000 -217295.4051 28778.9504 0.0000 0.0000 0.0000 -184877.6139 0.0000 -184877.6139 -184877.6139 0.0000 20061.4091 -3007.4878 534946.2959 20061.4091 -3007.4878
ENERGY: 4000 225.4217 684.6988 2790.2568 0.0000 -218679.5728 29353.1456 0.0000 0.0000 0.0000 -185626.0500 0.0000 -185626.0500 -185626.0500 0.0000 20352.5870 -2844.3450 534946.2959 20352.5870 -2844.3450
ENERGY: 5000 165.7023 662.3321 2788.0365 0.0000 -219435.2639 29654.9863 0.0000 0.0000 0.0000 -186164.2067 0.0000 -186164.2067 -186164.2067 0.0000 20523.0409 -2731.8065 534946.2959 20523.0409 -2731.8065
ENERGY: 6000 165.9445 662.6945 2787.2565 0.0000 -219866.3411 29812.8613 0.0000 0.0000 0.0000 -186437.5844 0.0000 -186437.5844 -186437.5844 0.0000 20607.4010 -2692.7622 534946.2959 20607.4010 -2692.7622
