Info: SIMULATION PARAMETERS:
Info: TIMESTEP               1
Info: NUMBER OF STEPS        0
Info: STEPS PER CYCLE        10
Info: PERIODIC CELL BASIS 1  72.449 0 0
Info: PERIODIC CELL BASIS 2  0 93.247 0
Info: PERIODIC CELL BASIS 3  0 0 79.185
Info: PERIODIC CELL CENTER   -0.248 -0.156 -0.047
Info: WRAPPING WATERS AROUND PERIODIC BOUNDARIES ON OUTPUT.
Info: WRAPPING ALL CLUSTERS AROUND PERIODIC BOUNDARIES ON OUTPUT.
Info: FIRST LDB TIMESTEP     50
Info: LAST LDB TIMESTEP     -1
Info: HOM BACKGROUND SCALING 1
Info: PME BACKGROUND SCALING 1
Info: MIN ATOMS PER PATCH    40
Info: VELOCITY FILE          ../replicas/rep43/equilibration/eq1.vel
Info: CENTER OF MASS MOVING INITIALLY? NO
Info: DIELECTRIC             1
Info: EXCLUDE                SCALED ONE-FOUR
Info: 1-4 ELECTROSTATICS SCALED BY 0.833333
Info: MODIFIED 1-4 VDW PARAMETERS WILL BE USED
Info: DCD FILENAME           ../replicas/rep43/equilibration/eq2.dcd
Info: DCD FREQUENCY          5000
Info: DCD FIRST STEP         5000
Info: DCD FILE WILL CONTAIN UNIT CELL DATA
Info: XST FILENAME           ../replicas/rep43/equilibration/eq2.xst
Info: XST FREQUENCY          5000
Info: NO VELOCITY DCD OUTPUT
Info: NO FORCE DCD OUTPUT
Info: OUTPUT FILENAME        ../replicas/rep43/equilibration/eq2
Info: RESTART FILENAME       ../replicas/rep43/equilibration/eq2.restart
Info: RESTART FREQUENCY      5000
Info: BINARY RESTART FILES WILL BE USED
Info: SWITCHING ACTIVE
Info: SWITCHING ON           10
Info: SWITCHING OFF          12
Info: PAIRLIST DISTANCE      13.5
Info: PAIRLIST SHRINK RATE   0.01
Info: PAIRLIST GROW RATE     0.01
Info: PAIRLIST TRIGGER       0.3
Info: PAIRLISTS PER CYCLE    2
Info: PAIRLISTS ENABLED
Info: MARGIN                 0.48
Info: HYDROGEN GROUP CUTOFF  2.5
Info: PATCH DIMENSION        16.48
Info: ENERGY OUTPUT STEPS    500
Info: CROSSTERM ENERGY INCLUDED IN DIHEDRAL
Info: TIMING OUTPUT STEPS    5000
Info: PRESSURE OUTPUT STEPS  500
Info: HARMONIC CONSTRAINTS ACTIVE
Info: HARMONIC CONS EXP      2
Info: HARMONIC CONS SCALING  10
Info: LANGEVIN DYNAMICS ACTIVE
Info: LANGEVIN TEMPERATURE   300
Info: LANGEVIN USING BBK INTEGRATOR
Info: LANGEVIN DAMPING COEFFICIENT IS 5 INVERSE PS
Info: LANGEVIN DYNAMICS NOT APPLIED TO HYDROGENS
Info: BERENDSEN PRESSURE COUPLING ACTIVE
Info:     TARGET PRESSURE IS 1 BAR
Info:     COMPRESSIBILITY ESTIMATE IS 4.57e-05 BAR^(-1)
Info:     RELAXATION TIME IS 100 FS
Info:     APPLIED EVERY 2 STEPS
Info:     PRESSURE CONTROL IS GROUP-BASED
Info:       CELL FLUCTUATION IS ISOTROPIC
Info: PARTICLE MESH EWALD (PME) ACTIVE
Info: PME TOLERANCE               1e-06
Info: PME EWALD COEFFICIENT       0.257952
Info: PME INTERPOLATION ORDER     4
Info: PME GRID DIMENSIONS         80 96 80
Info: PME MAXIMUM GRID SPACING    1
Info: FULL ELECTROSTATIC EVALUATION FREQUENCY      2
Info: USING VERLET I (r-RESPA) MTS SCHEME.
Info: C1 SPLITTING OF LONG RANGE ELECTROSTATICS
Info: PLACING ATOMS IN PATCHES BY HYDROGEN GROUPS
Info: RIGID BONDS TO HYDROGEN : WATER
Info:         ERROR TOLERANCE : 1e-05
Info:          MAX ITERATIONS : 100
Info: RIGID WATER USING SETTLE ALGORITHM
Info: RANDOM NUMBER SEED     1503722846
Info: USE HYDROGEN BONDS?    NO
Info: Using AMBER format force field!
Info: AMBER PARM FILE        ../build/complex.top
Info: COORDINATE PDB         ../replicas/rep43/equilibration/eq1.coor
Info: Exclusions in PARM file will be ignored!
Info: SCNB (VDW SCALING)     2
Info: USING ARITHMETIC MEAN TO COMBINE L-J SIGMA PARAMETERS
Info: SUMMARY OF PARAMETERS:
Info: 71 BONDS
Info: 145 ANGLES
Info: 76 DIHEDRAL
Info: 0 IMPROPER
Info: 0 CROSSTERM
Info: 0 VDW
Info: 190 VDW_PAIRS
Info: 0 NBTHOLE_PAIRS
Info: STRUCTURE SUMMARY:
Info: 49394 ATOMS
Info: 49448 BONDS
Info: 8698 ANGLES
Info: 18780 DIHEDRALS
Info: 0 IMPROPERS
Info: 0 CROSSTERMS
Info: 0 EXCLUSIONS
Info: 2336 CONSTRAINTS
Info: 44667 RIGID BONDS
Info: 103515 DEGREES OF FREEDOM
Info: 17225 HYDROGEN GROUPS
Info: 4 ATOMS IN LARGEST HYDROGEN GROUP
Info: 17225 MIGRATION GROUPS
Info: 4 ATOMS IN LARGEST MIGRATION GROUP
Info: TOTAL MASS = 301478 amu
Info: TOTAL CHARGE = 1.00115e-05 e
Info: MASS DENSITY = 0.935846 g/cm^3
Info: ATOM DENSITY = 0.0923345 atoms/A^3
Info: ADDED 70656 IMPLICIT EXCLUSIONS
Info: NONBONDED TABLE R-SQUARED SPACING: 0.0625
Info: NONBONDED TABLE SIZE: 769 POINTS
Info: REMOVING COM VELOCITY -0.00608542 -0.0281455 -0.0058937
TCL: Running for 5000 steps
ETITLE: TS BOND ANGLE DIHED IMPRP ELECT VDW BOUNDARY MISC KINETIC TOTAL TEMP POTENTIAL TOTAL3 TEMPAVG PRESSURE GPRESSURE VOLUME PRESSAVG GPRESSAVG
ENERGY: 0 374.7955 1200.0500 2920.6198 0.0000 -212705.4330 29530.8794 0.0000 0.0000 10007.8337 -168671.2546 97.3032 -178679.0883 -168661.6681 97.3032 -2367.5420 -2466.0518 534946.2959 -2367.5420 -2466.0518
ENERGY: 1000 1269.2889 1901.8053 3109.3987 0.0000 -193846.2581 26688.3970 778.4113 0.0000 24269.9718 -135828.9851 235.9698 -160098.9569 -135795.7822 218.2760 -28.3554 -14.3735 522028.9427 -19.7533 -19.7265
ENERGY: 2000 1431.0946 2149.2492 3144.3692 0.0000 -183769.1412 23334.2799 796.0389 0.0000 27887.0067 -125027.1028 271.1371 -152914.1095 -124990.9476 265.6351 -49.0438 -47.3745 518770.2412 -17.9044 -17.8888
ENERGY: 3000 1520.7153 2214.6106 3155.5381 0.0000 -179168.8291 21635.2038 813.5749 0.0000 29503.6813 -120325.5053 286.8556 -149829.1865 -120289.5164 284.7070 2.5098 2.0714 511404.4051 -23.1715 -23.4073
ENERGY: 4000 1540.7889 2226.0612 3178.6786 0.0000 -176643.0757 20768.5384 825.0403 0.0000 30288.9681 -117815.0002 294.4907 -148103.9683 -117771.8843 292.7550 -14.6764 -18.6450 507438.7404 -14.8004 -15.0991
ENERGY: 5000 1587.9292 2227.1040 3156.6535 0.0000 -175709.7651 20316.7878 824.1422 0.0000 30574.6861 -117022.4623 297.2686 -147597.1484 -116986.6822 297.5812 -173.5991 -43.4539 505851.6245 -9.0018 -8.4052
TCL: Setting parameter constraintScaling to 5.0
TCL: Running for 5000 steps
ETITLE: TS BOND ANGLE DIHED IMPRP ELECT VDW BOUNDARY MISC KINETIC TOTAL TEMP POTENTIAL TOTAL3 TEMPAVG PRESSURE GPRESSURE VOLUME PRESSAVG GPRESSAVG
ENERGY: 5000 1587.9292 2227.1040 3156.6535 0.0000 -175709.7651 20316.7878 412.0711 0.0000 30572.6708 -117436.5487 297.2491 -148009.2195 -117392.2552 297.2491 -279.6419 -152.5805 505851.6245 -279.6419 -152.5805
ENERGY: 6000 1555.0688 2265.4861 3182.6553 0.0000 -175804.3101 20298.6106 634.2968 0.0000 30876.6402 -116991.5524 300.2045 -147868.1926 -116942.0058 298.8290 -74.9738 38.7556 503814.5893 -9.5330 -9.1482
ENERGY: 7000 1596.7130 2378.6892 3172.5951 0.0000 -175826.1985 20240.8087 644.4403 0.0000 31054.2844 -116738.6677 301.9316 -147792.9521 -116690.5873 299.1850 -15.7314 -15.8564 502649.3959 -9.0013 -8.7595
ENERGY: 8000 1593.5265 2337.4321 3175.2419 0.0000 -176246.1036 20550.6390 601.9322 0.0000 30336.1387 -117651.1932 294.9493 -147987.3319 -117616.6733 298.4407 116.3564 50.5387 501944.8744 -2.7607 -3.1497
ENERGY: 9000 1551.7050 2290.7974 3153.4373 0.0000 -175533.4659 20122.7768 648.7912 0.0000 30571.5551 -117194.4031 297.2382 -147765.9581 -117146.4513 298.6139 3.2633 -17.9151 502837.6311 4.1886 3.7855
ENERGY: 10000 1609.3011 2327.2653 3175.3857 0.0000 -175642.0138 20198.4135 621.7772 0.0000 30698.3989 -117011.4720 298.4715 -147709.8710 -116960.7940 298.1880 -136.5014 -15.9839 501885.3238 -5.0687 -4.9236
TCL: Setting parameter constraintScaling to 2.5
TCL: Running for 5000 steps
ETITLE: TS BOND ANGLE DIHED IMPRP ELECT VDW BOUNDARY MISC KINETIC TOTAL TEMP POTENTIAL TOTAL3 TEMPAVG PRESSURE GPRESSURE VOLUME PRESSAVG GPRESSAVG
ENERGY: 10000 1609.3011 2327.2653 3175.3857 0.0000 -175642.0138 20198.4135 310.8886 0.0000 30696.3504 -117324.4091 298.4516 -148020.7596 -117283.7664 298.4516 -148.2738 -30.4142 501885.3238 -148.2738 -30.4142
ENERGY: 11000 1650.8093 2318.0818 3209.9414 0.0000 -176002.5436 20357.6432 495.3145 0.0000 30857.3196 -117113.4338 300.0166 -147970.7535 -117066.6243 298.4180 44.8139 8.4626 500422.8330 -7.4117 -8.3837
ENERGY: 12000 1616.4757 2353.3866 3160.3136 0.0000 -176005.5358 20173.4052 525.8118 0.0000 30802.4968 -117373.6461 299.4836 -148176.1428 -117324.3953 299.1517 -33.0719 -22.3200 499292.5127 1.5014 1.3442
ENERGY: 13000 1565.8641 2316.2965 3155.6104 0.0000 -175747.8604 20276.4568 520.2729 0.0000 30569.7308 -117343.6288 297.2205 -147913.3596 -117298.1494 298.8335 42.6824 16.0237 500397.9174 6.9627 6.6812
ENERGY: 14000 1660.2297 2409.1628 3168.3223 0.0000 -175770.7256 20187.9925 493.3137 0.0000 30525.3265 -117326.3780 296.7887 -147851.7045 -117284.2606 299.4219 22.2074 23.4460 499858.8164 4.6676 4.8209
ENERGY: 15000 1672.0467 2361.0433 3171.2352 0.0000 -175717.5047 20086.4079 534.6350 0.0000 30903.3029 -116988.8337 300.4637 -147892.1366 -116933.9757 299.4032 -107.5235 -66.6649 500846.1480 8.2363 8.2146
TCL: Setting parameter constraintScaling to 1.25
TCL: Running for 5000 steps
ETITLE: TS BOND ANGLE DIHED IMPRP ELECT VDW BOUNDARY MISC KINETIC TOTAL TEMP POTENTIAL TOTAL3 TEMPAVG PRESSURE GPRESSURE VOLUME PRESSAVG GPRESSAVG
ENERGY: 15000 1672.0467 2361.0433 3171.2352 0.0000 -175717.5047 20086.4079 267.3175 0.0000 30901.2743 -117258.1798 300.4440 -148159.4541 -117214.5192 300.4440 -190.6226 -147.8461 500846.1480 -190.6226 -147.8461
ENERGY: 16000 1622.0296 2365.9558 3198.2142 0.0000 -175658.7769 20100.1924 390.5396 0.0000 30699.9501 -117281.8952 298.4866 -147981.8453 -117238.2558 298.6324 -9.5297 -23.5601 500733.7313 5.9610 5.9308
ENERGY: 17000 1675.5328 2288.8476 3218.0947 0.0000 -176021.5491 20164.7648 411.7200 0.0000 30753.1537 -117509.4355 299.0038 -148262.5892 -117469.7531 298.3786 -19.7020 36.1345 499344.7538 5.5829 5.6467
ENERGY: 18000 1600.1022 2383.9893 3167.4037 0.0000 -175710.5095 20234.0612 411.0589 0.0000 30800.1834 -117113.7107 299.4611 -147913.8941 -117080.2999 299.2996 -71.7250 -53.3219 499401.8977 -1.9254 -2.6203
ENERGY: 19000 1561.4466 2388.2863 3178.0037 0.0000 -175962.0601 20264.8018 392.2319 0.0000 30925.3765 -117251.9133 300.6783 -148177.2898 -117202.8848 299.9419 -7.8751 -4.8800 498685.9490 -0.6964 -0.8222
ENERGY: 20000 1561.4104 2337.3432 3172.0397 0.0000 -175257.6433 19710.6249 397.3833 0.0000 30971.8044 -117107.0374 301.1297 -148078.8417 -117057.3811 299.7842 -46.8920 -31.8944 499505.7465 -1.2292 -1.1189
TCL: Setting parameter constraintScaling to 0.625
TCL: Running for 5000 steps
ETITLE: TS BOND ANGLE DIHED IMPRP ELECT VDW BOUNDARY MISC KINETIC TOTAL TEMP POTENTIAL TOTAL3 TEMPAVG PRESSURE GPRESSURE VOLUME PRESSAVG GPRESSAVG
ENERGY: 20000 1561.4104 2337.3432 3172.0397 0.0000 -175257.6433 19710.6249 198.6917 0.0000 30969.7517 -117307.7817 301.1098 -148277.5334 -117263.2297 301.1098 -173.2882 -156.5615 499505.7465 -173.2882 -156.5615
ENERGY: 21000 1639.5798 2381.3600 3186.9729 0.0000 -175991.8311 20310.5935 327.1989 0.0000 30598.2519 -117547.8741 297.4978 -148146.1261 -117500.0128 298.9918 -20.2846 41.9373 497796.9333 1.9936 1.9352
ENERGY: 22000 1689.8265 2373.3410 3199.4663 0.0000 -175755.3247 19994.9674 319.6597 0.0000 30863.7788 -117314.2850 300.0794 -148178.0637 -117260.2020 298.5610 -14.7161 61.6253 498786.6668 13.8390 13.6142
ENERGY: 23000 1605.1638 2393.7490 3164.4171 0.0000 -175786.1943 20148.0508 301.8240 0.0000 30723.3819 -117449.6076 298.7144 -148172.9895 -117413.8588 299.1703 47.1638 57.7704 498410.8874 -1.6833 -1.5886
ENERGY: 24000 1656.5983 2344.3128 3187.4380 0.0000 -175991.7621 20223.5067 299.9082 0.0000 30819.6711 -117460.3270 299.6506 -148279.9981 -117408.6063 299.6563 -68.9209 1.9869 497911.9115 -2.9900 -2.8036
ENERGY: 25000 1654.3086 2400.4145 3183.0888 0.0000 -175914.7663 20279.9467 316.3246 0.0000 30613.7228 -117466.9603 297.6482 -148080.6831 -117429.7462 298.8320 13.0965 24.6505 497995.1418 0.4306 0.9218
TCL: Setting parameter constraintScaling to 0.3125
TCL: Running for 5000 steps
ETITLE: TS BOND ANGLE DIHED IMPRP ELECT VDW BOUNDARY MISC KINETIC TOTAL TEMP POTENTIAL TOTAL3 TEMPAVG PRESSURE GPRESSURE VOLUME PRESSAVG GPRESSAVG
ENERGY: 25000 1654.3086 2400.4145 3183.0888 0.0000 -175914.7663 20279.9467 158.1623 0.0000 30611.6412 -117627.2043 297.6279 -148238.8455 -117585.6167 297.6279 0.8372 10.3132 497995.1418 0.8372 10.3132
ENERGY: 26000 1648.8569 2407.0768 3219.2330 0.0000 -176150.0670 20246.8255 261.7463 0.0000 30836.2149 -117530.1136 299.8114 -148366.3285 -117476.7710 299.6363 -3.9796 -6.1069 498116.3791 3.9966 3.7872
ENERGY: 27000 1645.9698 2368.1536 3204.1062 0.0000 -176152.2417 20182.5966 253.2981 0.0000 30703.5518 -117794.5656 298.5216 -148498.1174 -117751.6864 299.0668 -136.2199 -46.8049 498397.0286 -0.1963 -0.4125
ENERGY: 28000 1607.8726 2413.8833 3204.3058 0.0000 -175884.9105 19976.2007 255.0607 0.0000 30941.2667 -117486.3206 300.8328 -148427.5873 -117430.7816 300.1460 40.7020 3.9312 498769.8032 4.1463 3.7564
ENERGY: 29000 1667.9543 2396.8171 3199.1514 0.0000 -175380.9779 19896.5085 252.9068 0.0000 31027.5129 -116940.1269 301.6713 -147967.6398 -116901.3733 300.1764 -105.3301 -59.5987 500511.2199 17.2914 16.9121
ENERGY: 30000 1644.4497 2383.9312 3207.6503 0.0000 -175090.9666 19733.4703 267.2466 0.0000 31064.8170 -116789.4015 302.0340 -147854.2184 -116744.6765 300.3235 -69.2143 -94.0715 498847.4418 -5.6050 -5.6323
TCL: Setting parameter constraintScaling to 0.15625
TCL: Running for 5000 steps
ETITLE: TS BOND ANGLE DIHED IMPRP ELECT VDW BOUNDARY MISC KINETIC TOTAL TEMP POTENTIAL TOTAL3 TEMPAVG PRESSURE GPRESSURE VOLUME PRESSAVG GPRESSAVG
ENERGY: 30000 1644.4497 2383.9312 3207.6503 0.0000 -175090.9666 19733.4703 133.6233 0.0000 31062.7824 -116925.0593 302.0143 -147987.8417 -116879.7691 302.0143 -92.6396 -121.9500 498847.4418 -92.6396 -121.9500
ENERGY: 31000 1651.3481 2346.5582 3218.4177 0.0000 -175271.5633 19894.6982 199.0853 0.0000 30740.5260 -117220.9299 298.8811 -147961.4559 -117172.6120 301.0281 -15.5013 52.7713 497362.1216 -1.5146 -1.9247
ENERGY: 32000 1655.9780 2390.3110 3211.9583 0.0000 -175502.2292 20034.9907 209.4915 0.0000 30796.9890 -117202.5107 299.4300 -147999.4997 -117159.1620 299.6589 -99.8361 2.9245 498010.3948 7.8820 8.0572
ENERGY: 33000 1598.0896 2460.9120 3194.7488 0.0000 -175394.4335 19887.7646 210.0844 0.0000 30841.9561 -117200.8781 299.8672 -148042.8342 -117145.2334 300.7978 31.2382 90.2116 497612.8386 -0.2899 0.2070
ENERGY: 34000 1598.8190 2460.7852 3224.6277 0.0000 -175728.9439 20108.0685 195.8711 0.0000 30749.2723 -117391.5000 298.9661 -148140.7724 -117342.7820 300.5639 47.3480 60.5833 497401.3072 3.5820 3.4810
ENERGY: 35000 1589.3679 2389.8496 3224.4074 0.0000 -175956.7609 20193.7421 214.3359 0.0000 30493.2494 -117851.8085 296.4769 -148345.0579 -117806.5114 298.9652 -25.6002 25.3981 497138.0507 5.1047 5.2354
TCL: Setting parameter constraintScaling to 0.078125
TCL: Running for 5000 steps
ETITLE: TS BOND ANGLE DIHED IMPRP ELECT VDW BOUNDARY MISC KINETIC TOTAL TEMP POTENTIAL TOTAL3 TEMPAVG PRESSURE GPRESSURE VOLUME PRESSAVG GPRESSAVG
ENERGY: 35000 1589.3679 2389.8496 3224.4074 0.0000 -175956.7609 20193.7421 107.1680 0.0000 30491.1930 -117961.0328 296.4569 -148452.2259 -117915.8885 296.4569 -27.7807 13.9338 497138.0507 -27.7807 13.9338
ENERGY: 36000 1612.2224 2455.6778 3188.2326 0.0000 -176079.2344 20130.1229 146.6234 0.0000 30818.7836 -117727.5715 299.6419 -148546.3551 -117680.4635 298.9277 -34.7824 0.7892 496890.0626 -6.7471 -6.8270
ENERGY: 37000 1592.3926 2426.8576 3223.4082 0.0000 -175829.1274 20091.7312 142.3375 0.0000 30866.5297 -117485.8707 300.1062 -148352.4004 -117440.9373 298.9025 -81.0916 -1.1683 496858.0238 3.2745 2.7451
ENERGY: 38000 1609.9532 2419.3495 3214.0203 0.0000 -176016.7252 20020.5354 165.1049 0.0000 30734.5767 -117853.1853 298.8232 -148587.7620 -117811.7909 299.4851 -52.7648 -24.5903 496747.7200 -3.3143 -3.4413
ENERGY: 39000 1576.7763 2389.0492 3182.6795 0.0000 -175795.5863 20088.2315 160.2427 0.0000 30906.9558 -117491.6513 300.4992 -148398.6072 -117450.7349 299.9281 33.3085 75.8419 497129.9624 -1.4253 -1.1569
ENERGY: 40000 1650.2273 2410.9348 3181.5042 0.0000 -175967.3678 20175.9562 160.4897 0.0000 31180.5631 -117207.6925 303.1594 -148388.2556 -117154.8324 300.3312 27.5516 27.1355 497538.6801 11.1717 10.9580
TCL: Setting parameter constraintScaling to 0.0390625
TCL: Running for 5000 steps
ETITLE: TS BOND ANGLE DIHED IMPRP ELECT VDW BOUNDARY MISC KINETIC TOTAL TEMP POTENTIAL TOTAL3 TEMPAVG PRESSURE GPRESSURE VOLUME PRESSAVG GPRESSAVG
ENERGY: 40000 1650.2273 2410.9348 3181.5042 0.0000 -175967.3678 20175.9562 80.2449 0.0000 31178.5248 -117289.9757 303.1396 -148468.5005 -117248.3214 303.1396 8.3590 9.4075 497538.6801 8.3590 9.4075
ENERGY: 41000 1642.6879 2406.5018 3185.8011 0.0000 -175582.1506 19851.7401 118.8334 0.0000 31004.9160 -117371.6703 301.4516 -148376.5863 -117316.2945 300.6821 -11.2103 17.9990 497327.3218 4.5808 4.9334
ENERGY: 42000 1554.3976 2416.6866 3261.5476 0.0000 -175690.6945 19986.4294 116.1839 0.0000 30753.2766 -117602.1729 299.0050 -148355.4495 -117556.1050 299.2974 15.7529 13.3690 496951.5689 -1.1574 -1.3945
ENERGY: 43000 1628.9281 2373.1527 3222.7619 0.0000 -175992.8975 19957.7393 122.5644 0.0000 30776.0462 -117911.7049 299.2264 -148687.7511 -117857.4883 299.5503 -178.8432 -37.3627 495016.9831 -10.8891 -11.3838
ENERGY: 44000 1631.3731 2492.1115 3196.5550 0.0000 -176024.6304 19985.8142 135.9575 0.0000 30855.3043 -117727.5149 299.9970 -148582.8191 -117671.9601 299.7044 87.8269 66.7923 495668.4827 7.1738 7.2835
ENERGY: 45000 1649.3750 2461.3299 3257.2140 0.0000 -176060.9089 20174.3444 130.9684 0.0000 30869.8216 -117517.8556 300.1382 -148387.6772 -117469.8702 300.2489 -9.3589 29.6280 496276.5949 4.9527 5.1667
TCL: Setting parameter constraintScaling to 0.01953125
TCL: Running for 5000 steps
ETITLE: TS BOND ANGLE DIHED IMPRP ELECT VDW BOUNDARY MISC KINETIC TOTAL TEMP POTENTIAL TOTAL3 TEMPAVG PRESSURE GPRESSURE VOLUME PRESSAVG GPRESSAVG
ENERGY: 45000 1649.3750 2461.3299 3257.2140 0.0000 -176060.9090 20174.3444 65.4842 0.0000 30867.7872 -117585.3742 300.1184 -148453.1614 -117540.5470 300.1184 4.3997 29.5435 496276.5949 4.3997 29.5435
ENERGY: 46000 1646.1454 2452.9828 3218.4309 0.0000 -176109.2764 20158.5169 81.2992 0.0000 30641.1303 -117910.7709 297.9147 -148551.9012 -117862.8233 300.0419 101.4345 101.9674 495085.5990 -5.1124 -5.0814
ENERGY: 47000 1622.0832 2398.0477 3236.7139 0.0000 -176195.9046 20083.5331 87.8007 0.0000 30838.2218 -117929.5043 299.8309 -148767.7261 -117885.0808 299.0037 -40.1635 -30.4508 495527.2055 -2.0230 -2.3527
ENERGY: 48000 1610.1887 2378.7684 3213.3080 0.0000 -176099.5022 20075.8980 94.5446 0.0000 30999.6901 -117727.1044 301.4008 -148726.7945 -117693.2129 300.0567 42.3742 56.9185 495867.4915 -9.4867 -9.6219
ENERGY: 49000 1672.5673 2407.2203 3204.4151 0.0000 -175635.5693 19816.3395 86.2364 0.0000 30979.9551 -117468.8357 301.2090 -148448.7907 -117423.8704 300.1004 -58.5310 -7.6628 497107.9784 1.0424 1.7492
ENERGY: 50000 1676.1746 2430.7092 3230.1318 0.0000 -176208.8876 20136.8057 90.3175 0.0000 30837.6584 -117807.0904 299.8254 -148644.7488 -117749.4390 300.9295 -7.4399 7.4464 497486.7957 -5.4070 -5.1574
TCL: Setting parameter constraintScaling to 0
TCL: Running for 5000 steps
ETITLE: TS BOND ANGLE DIHED IMPRP ELECT VDW BOUNDARY MISC KINETIC TOTAL TEMP POTENTIAL TOTAL3 TEMPAVG PRESSURE GPRESSURE VOLUME PRESSAVG GPRESSAVG
ENERGY: 50000 1676.1746 2430.7092 3230.1318 0.0000 -176208.8876 20136.8057 0.0000 0.0000 30835.6126 -117899.4537 299.8056 -148735.0663 -117854.8199 299.8056 -30.6053 -6.8798 497486.7957 -30.6053 -6.8798
ENERGY: 51000 1619.2997 2364.7850 3236.0225 0.0000 -176328.3275 20312.6923 0.0000 0.0000 30913.5694 -117881.9585 300.5635 -148795.5280 -117840.5953 299.8358 121.6095 94.4219 496010.7944 -3.4478 -3.7456
ENERGY: 52000 1605.5567 2449.7489 3212.7969 0.0000 -176479.1419 20164.9212 0.0000 0.0000 30690.4489 -118355.6694 298.3942 -149046.1183 -118320.1603 297.2880 91.2688 52.2122 494343.9023 -11.8820 -12.1025
ENERGY: 53000 1639.8771 2467.4200 3210.4264 0.0000 -176058.1056 20062.3177 0.0000 0.0000 30668.6776 -118009.3868 298.1825 -148678.0644 -117954.6334 298.7300 61.4291 22.0555 496132.8606 2.5976 2.5890
ENERGY: 54000 1641.9708 2396.4031 3227.6373 0.0000 -176189.1148 20009.9939 0.0000 0.0000 30810.3217 -118102.7881 299.5597 -148913.1098 -118063.1821 299.4113 -63.4464 17.0608 494326.6102 -11.4295 -11.1746
ENERGY: 55000 1603.7156 2381.0503 3220.6104 0.0000 -175895.0139 20094.4050 0.0000 0.0000 30928.6008 -117666.6318 300.7097 -148595.2326 -117617.6543 299.8933 92.2766 81.9241 495984.4022 1.2524 1.8122
