Info: SIMULATION PARAMETERS:
Info: TIMESTEP               2
Info: NUMBER OF STEPS        0
Info: STEPS PER CYCLE        10
Info: PERIODIC CELL BASIS 1  72.449 0 0
Info: PERIODIC CELL BASIS 2  0 93.247 0
Info: PERIODIC CELL BASIS 3  0 0 79.185
Info: PERIODIC CELL CENTER   -0.248 -0.156 -0.047
Info: WRAPPING WATERS AROUND PERIODIC BOUNDARIES ON OUTPUT.
Info: WRAPPING ALL CLUSTERS AROUND PERIODIC BOUNDARIES ON OUTPUT.
Info: FIRST LDB TIMESTEP     50
Info: LAST LDB TIMESTEP     -1
Info: HOM BACKGROUND SCALING 1
Info: PME BACKGROUND SCALING 1
Info: MIN ATOMS PER PATCH    40
Info: INITIAL TEMPERATURE    0
Info: CENTER OF MASS MOVING INITIALLY? NO
Info: DIELECTRIC             1
Info: EXCLUDE                SCALED ONE-FOUR
Info: 1-4 ELECTROSTATICS SCALED BY 0.833333
Info: MODIFIED 1-4 VDW PARAMETERS WILL BE USED
Info: NO DCD TRAJECTORY OUTPUT
Info: NO EXTENDED SYSTEM TRAJECTORY OUTPUT
Info: NO VELOCITY DCD OUTPUT
Info: NO FORCE DCD OUTPUT
Info: OUTPUT FILENAME        ../replicas/rep8/equilibration/eq0
Info: NO RESTART FILE
Info: SWITCHING ACTIVE
Info: SWITCHING ON           10
Info: SWITCHING OFF          12
Info: PAIRLIST DISTANCE      13.5
Info: PAIRLIST SHRINK RATE   0.01
Info: PAIRLIST GROW RATE     0.01
Info: PAIRLIST TRIGGER       0.3
Info: PAIRLISTS PER CYCLE    2
Info: PAIRLISTS ENABLED
Info: MARGIN                 0
Info: HYDROGEN GROUP CUTOFF  2.5
Info: PATCH DIMENSION        16
Info: ENERGY OUTPUT STEPS    500
Info: CROSSTERM ENERGY INCLUDED IN DIHEDRAL
Info: TIMING OUTPUT STEPS    5000
Info: PRESSURE OUTPUT STEPS  500
Info: HARMONIC CONSTRAINTS ACTIVE
Info: HARMONIC CONS EXP      2
Info: HARMONIC CONS SCALING  10
Info: CONJUGATE GRADIENT MINIMIZATION ACTIVE
Info: LINE MINIMIZATION GOAL = 0.001
Info: BABY STEP SIZE = 0.01
Info: TINY STEP SIZE = 1e-06
Info: PARTICLE MESH EWALD (PME) ACTIVE
Info: PME TOLERANCE               1e-06
Info: PME EWALD COEFFICIENT       0.257952
Info: PME INTERPOLATION ORDER     4
Info: PME GRID DIMENSIONS         80 96 80
Info: PME MAXIMUM GRID SPACING    1
Info: FULL ELECTROSTATIC EVALUATION FREQUENCY      2
Info: USING VERLET I (r-RESPA) MTS SCHEME.
Info: C1 SPLITTING OF LONG RANGE ELECTROSTATICS
Info: PLACING ATOMS IN PATCHES BY HYDROGEN GROUPS
Info: RIGID BONDS TO HYDROGEN : ALL
Info:         ERROR TOLERANCE : 1e-05
Info:          MAX ITERATIONS : 100
Info: RIGID WATER USING SETTLE ALGORITHM
Info: RANDOM NUMBER SEED     1503248884
Info: USE HYDROGEN BONDS?    NO
Info: Using AMBER format force field!
Info: AMBER PARM FILE        ../build/complex.top
Info: COORDINATE PDB         ../build/complex.pdb
Info: Exclusions in PARM file will be ignored!
Info: SCNB (VDW SCALING)     2
Info: USING ARITHMETIC MEAN TO COMBINE L-J SIGMA PARAMETERS
Info: SUMMARY OF PARAMETERS:
Info: 71 BONDS
Info: 145 ANGLES
Info: 76 DIHEDRAL
Info: 0 IMPROPER
Info: 0 CROSSTERM
Info: 0 VDW
Info: 190 VDW_PAIRS
Info: 0 NBTHOLE_PAIRS
Info: STRUCTURE SUMMARY:
Info: 49394 ATOMS
Info: 49448 BONDS
Info: 8698 ANGLES
Info: 18780 DIHEDRALS
Info: 0 IMPROPERS
Info: 0 CROSSTERMS
Info: 0 EXCLUSIONS
Info: 2336 CONSTRAINTS
Info: 47058 RIGID BONDS
Info: 101124 DEGREES OF FREEDOM
Info: 17225 HYDROGEN GROUPS
Info: 4 ATOMS IN LARGEST HYDROGEN GROUP
Info: 17225 MIGRATION GROUPS
Info: 4 ATOMS IN LARGEST MIGRATION GROUP
Info: TOTAL MASS = 301478 amu
Info: TOTAL CHARGE = 1.00115e-05 e
Info: MASS DENSITY = 0.935846 g/cm^3
Info: ATOM DENSITY = 0.0923345 atoms/A^3
Info: ADDED 70656 IMPLICIT EXCLUSIONS
Info: NONBONDED TABLE R-SQUARED SPACING: 0.0625
Info: NONBONDED TABLE SIZE: 769 POINTS
Info: REMOVING COM VELOCITY 0 0 0
TCL: Minimizing for 100 steps
ETITLE: TS BOND ANGLE DIHED IMPRP ELECT VDW BOUNDARY MISC KINETIC TOTAL TEMP POTENTIAL TOTAL3 TEMPAVG PRESSURE GPRESSURE VOLUME PRESSAVG GPRESSAVG
ENERGY: 0 155.4176 1012.2698 2855.7272 0.0000 -154496.7911 207729.2052 0.0468 0.0000 0.0000 57255.8755 0.0000 57255.8755 57255.8755 0.0000 116350.2532 86546.1670 534946.2959 116350.2532 86546.1670
ENERGY: 20 304.7548 935.7911 2893.4663 0.0000 -158672.9404 17936.6595 143.9454 0.0000 0.0000 -136458.3233 0.0000 -136458.3233 -136458.3233 0.0000 16523.9388 -239.4557 534946.2959 16523.9388 -239.4557
ENERGY: 40 198.7448 799.5728 2896.9273 0.0000 -162811.4538 16417.9535 221.3030 0.0000 0.0000 -142276.9524 0.0000 -142276.9524 -142276.9524 0.0000 15011.2701 -2135.4701 534946.2959 15011.2701 -2135.4701
ENERGY: 60 130.5282 715.3440 2898.2166 0.0000 -167496.1581 15446.7537 315.2796 0.0000 0.0000 -147990.0360 0.0000 -147990.0360 -147990.0360 0.0000 13793.8834 -3799.3990 534946.2959 13793.8834 -3799.3990
ENERGY: 80 431.2731 765.6308 2904.3786 0.0000 -169937.5318 15121.1522 372.0122 0.0000 0.0000 -150343.0848 0.0000 -150343.0848 -150343.0848 0.0000 13270.3300 -4577.2460 534946.2959 13270.3300 -4577.2460
ENERGY: 100 129.7137 708.0648 2904.2780 0.0000 -171050.0679 15018.6533 384.2001 0.0000 0.0000 -151905.1579 0.0000 -151905.1579 -151905.1579 0.0000 13092.9125 -4843.6319 534946.2959 13092.9125 -4843.6319
TCL: Setting parameter constraintScaling to 5.0
TCL: Minimizing for 100 steps
ETITLE: TS BOND ANGLE DIHED IMPRP ELECT VDW BOUNDARY MISC KINETIC TOTAL TEMP POTENTIAL TOTAL3 TEMPAVG PRESSURE GPRESSURE VOLUME PRESSAVG GPRESSAVG
ENERGY: 100 129.7137 708.0648 2904.2780 0.0000 -171050.0680 15018.6533 192.1000 0.0000 0.0000 -152097.2580 0.0000 -152097.2580 -152097.2580 0.0000 13703.5077 -22944.4551 534946.2959 13703.5077 -22944.4551
ENERGY: 120 118.6821 680.2876 2909.9066 0.0000 -172396.3144 14830.1205 259.9549 0.0000 0.0000 -153597.3627 0.0000 -153597.3627 -153597.3627 0.0000 13320.9473 -4756.3073 534946.2959 13320.9473 -4756.3073
ENERGY: 140 109.1485 671.1470 2912.0863 0.0000 -174830.2517 14716.1440 337.7304 0.0000 0.0000 -156083.9956 0.0000 -156083.9956 -156083.9956 0.0000 12908.9603 -5423.1440 534946.2959 12908.9603 -5423.1440
ENERGY: 160 125.8508 667.1498 2914.1926 0.0000 -175967.0373 14735.1339 362.9185 0.0000 0.0000 -157161.7918 0.0000 -157161.7918 -157161.7918 0.0000 12806.8967 -5644.3501 534946.2959 12806.8967 -5644.3501
ENERGY: 180 303.5064 659.6800 2917.2965 0.0000 -177408.6906 14815.0130 395.3822 0.0000 0.0000 -158317.8125 0.0000 -158317.8125 -158317.8125 0.0000 12699.3161 -5901.4002 534946.2959 12699.3161 -5901.4002
ENERGY: 200 109.2120 628.4786 2923.3592 0.0000 -179544.1174 15071.2007 441.8892 0.0000 0.0000 -160369.9777 0.0000 -160369.9777 -160369.9777 0.0000 12659.9889 -6155.6876 534946.2959 12659.9889 -6155.6876
TCL: Setting parameter constraintScaling to 2.5
TCL: Minimizing for 100 steps
ETITLE: TS BOND ANGLE DIHED IMPRP ELECT VDW BOUNDARY MISC KINETIC TOTAL TEMP POTENTIAL TOTAL3 TEMPAVG PRESSURE GPRESSURE VOLUME PRESSAVG GPRESSAVG
ENERGY: 200 109.2120 628.4786 2923.3592 0.0000 -179544.1174 15071.2007 220.9446 0.0000 0.0000 -160590.9223 0.0000 -160590.9223 -160590.9223 0.0000 13208.4179 -25274.8564 534946.2959 13208.4179 -25274.8564
ENERGY: 220 169.2863 639.7818 2924.9634 0.0000 -180454.0752 15113.9639 291.3305 0.0000 0.0000 -161314.7492 0.0000 -161314.7492 -161314.7492 0.0000 13002.2502 -5918.5835 534946.2959 13002.2502 -5918.5835
ENERGY: 240 251.8494 643.1652 2921.4001 0.0000 -181894.2079 15358.9605 339.5303 0.0000 0.0000 -162379.3024 0.0000 -162379.3024 -162379.3024 0.0000 12964.1514 -6111.2972 534946.2959 12964.1514 -6111.2972
ENERGY: 260 174.2013 639.0276 2923.9338 0.0000 -184184.8374 15908.9567 437.7038 0.0000 0.0000 -164101.0142 0.0000 -164101.0142 -164101.0142 0.0000 13009.2548 -6310.1380 534946.2959 13009.2548 -6310.1380
ENERGY: 280 146.3089 648.5869 2918.2252 0.0000 -184715.1549 16069.5918 427.8206 0.0000 0.0000 -164504.6215 0.0000 -164504.6215 -164504.6215 0.0000 13128.1482 -6264.4969 534946.2959 13128.1482 -6264.4969
ENERGY: 300 230.0485 688.6277 2927.2563 0.0000 -186396.8292 16616.3786 426.0603 0.0000 0.0000 -165508.4578 0.0000 -165508.4578 -165508.4578 0.0000 13376.3809 -6206.8962 534946.2959 13376.3809 -6206.8962
TCL: Setting parameter constraintScaling to 1.25
TCL: Minimizing for 100 steps
ETITLE: TS BOND ANGLE DIHED IMPRP ELECT VDW BOUNDARY MISC KINETIC TOTAL TEMP POTENTIAL TOTAL3 TEMPAVG PRESSURE GPRESSURE VOLUME PRESSAVG GPRESSAVG
ENERGY: 300 230.0485 688.6277 2927.2563 0.0000 -186396.8292 16616.3786 213.0301 0.0000 0.0000 -165721.4879 0.0000 -165721.4879 -165721.4879 0.0000 13787.2384 -26288.1700 534946.2959 13787.2384 -26288.1700
ENERGY: 320 181.2364 669.0338 2910.7516 0.0000 -186928.2267 16730.2432 253.4187 0.0000 0.0000 -166183.5429 0.0000 -166183.5429 -166183.5429 0.0000 13766.7781 -5870.9951 534946.2959 13766.7781 -5870.9951
ENERGY: 340 161.1844 655.6161 2915.9083 0.0000 -187964.1563 17003.1149 316.6309 0.0000 0.0000 -166911.7017 0.0000 -166911.7017 -166911.7017 0.0000 13738.1380 -5999.0824 534946.2959 13738.1380 -5999.0824
ENERGY: 360 265.4447 701.8236 2906.7072 0.0000 -188774.1690 17285.5894 344.1155 0.0000 0.0000 -167270.4887 0.0000 -167270.4887 -167270.4887 0.0000 13821.9128 -6033.5064 534946.2959 13821.9128 -6033.5064
ENERGY: 380 219.9346 670.9830 2900.2024 0.0000 -189512.7148 17547.9794 349.4290 0.0000 0.0000 -167824.1864 0.0000 -167824.1864 -167824.1864 0.0000 13985.5540 -5967.2292 534946.2959 13985.5540 -5967.2292
ENERGY: 400 140.4933 635.1299 2906.5572 0.0000 -190463.0674 17900.4773 356.0221 0.0000 0.0000 -168524.3876 0.0000 -168524.3876 -168524.3876 0.0000 14129.6050 -5904.4826 534946.2959 14129.6050 -5904.4826
TCL: Setting parameter constraintScaling to 0.625
TCL: Minimizing for 100 steps
ETITLE: TS BOND ANGLE DIHED IMPRP ELECT VDW BOUNDARY MISC KINETIC TOTAL TEMP POTENTIAL TOTAL3 TEMPAVG PRESSURE GPRESSURE VOLUME PRESSAVG GPRESSAVG
ENERGY: 400 140.4933 635.1299 2906.5572 0.0000 -190463.0674 17900.4773 178.0110 0.0000 0.0000 -168702.3986 0.0000 -168702.3986 -168702.3986 0.0000 14411.2255 -26627.7693 534946.2959 14411.2255 -26627.7693
ENERGY: 420 195.5578 665.0094 2895.7551 0.0000 -191309.4200 18147.0920 231.6902 0.0000 0.0000 -169174.3154 0.0000 -169174.3154 -169174.3154 0.0000 14386.7117 -5740.5279 534946.2959 14386.7117 -5740.5279
ENERGY: 440 185.5915 685.4106 2892.2826 0.0000 -192537.1996 18571.4286 292.3275 0.0000 0.0000 -169910.1588 0.0000 -169910.1588 -169910.1588 0.0000 14468.2010 -5795.8218 534946.2959 14468.2010 -5795.8218
ENERGY: 460 346.1942 690.9341 2884.3649 0.0000 -194004.7879 19191.9015 326.3550 0.0000 0.0000 -170565.0383 0.0000 -170565.0383 -170565.0383 0.0000 14748.8920 -5683.8039 534946.2959 14748.8920 -5683.8039
ENERGY: 480 151.3213 648.7812 2882.4330 0.0000 -194498.3767 19404.0429 331.3549 0.0000 0.0000 -171080.4435 0.0000 -171080.4435 -171080.4435 0.0000 14896.9250 -5594.3113 534946.2959 14896.9250 -5594.3113
ENERGY: 500 165.4609 654.8180 2878.5562 0.0000 -195034.3872 19604.4533 328.1414 0.0000 0.0000 -171402.9574 0.0000 -171402.9574 -171402.9574 0.0000 14998.2495 -5544.8506 534946.2959 14998.2495 -5544.8506
TCL: Setting parameter constraintScaling to 0.3125
TCL: Minimizing for 100 steps
ETITLE: TS BOND ANGLE DIHED IMPRP ELECT VDW BOUNDARY MISC KINETIC TOTAL TEMP POTENTIAL TOTAL3 TEMPAVG PRESSURE GPRESSURE VOLUME PRESSAVG GPRESSAVG
ENERGY: 500 165.4609 654.8180 2878.5562 0.0000 -195034.3872 19604.4533 164.0707 0.0000 0.0000 -171567.0281 0.0000 -171567.0281 -171567.0281 0.0000 15200.2063 -26909.2137 534946.2959 15200.2063 -26909.2137
ENERGY: 520 189.5988 657.2829 2877.2732 0.0000 -195367.5139 19707.5104 175.9396 0.0000 0.0000 -171759.9089 0.0000 -171759.9089 -171759.9089 0.0000 15215.2160 -5364.0189 534946.2959 15215.2160 -5364.0189
ENERGY: 540 170.2155 676.1931 2877.4156 0.0000 -195984.5452 19922.3364 190.2936 0.0000 0.0000 -172148.0910 0.0000 -172148.0910 -172148.0910 0.0000 15305.9235 -5343.8826 534946.2959 15305.9235 -5343.8826
ENERGY: 560 156.2432 647.1607 2867.8106 0.0000 -196361.5545 20056.7958 202.0070 0.0000 0.0000 -172431.5372 0.0000 -172431.5372 -172431.5372 0.0000 15343.6880 -5342.8125 534946.2959 15343.6880 -5342.8125
ENERGY: 580 197.2440 670.3304 2875.0118 0.0000 -197016.3376 20306.9773 212.9778 0.0000 0.0000 -172753.7962 0.0000 -172753.7962 -172753.7962 0.0000 15462.8479 -5310.8669 534946.2959 15462.8479 -5310.8669
ENERGY: 600 153.2628 662.8388 2867.0265 0.0000 -198414.9071 20893.9560 231.2272 0.0000 0.0000 -173606.5958 0.0000 -173606.5958 -173606.5958 0.0000 15774.1594 -5163.6776 534946.2959 15774.1594 -5163.6776
TCL: Setting parameter constraintScaling to 0.15625
TCL: Minimizing for 100 steps
ETITLE: TS BOND ANGLE DIHED IMPRP ELECT VDW BOUNDARY MISC KINETIC TOTAL TEMP POTENTIAL TOTAL3 TEMPAVG PRESSURE GPRESSURE VOLUME PRESSAVG GPRESSAVG
ENERGY: 600 153.2628 662.8388 2867.0265 0.0000 -198414.9071 20893.9560 115.6136 0.0000 0.0000 -173722.2094 0.0000 -173722.2094 -173722.2094 0.0000 15899.1637 -27014.7833 534946.2959 15899.1637 -27014.7833
ENERGY: 620 155.4287 647.4509 2859.0212 0.0000 -198647.7998 20949.9110 124.1002 0.0000 0.0000 -173911.8878 0.0000 -173911.8878 -173911.8878 0.0000 15886.2795 -5071.5745 534946.2959 15886.2795 -5071.5745
ENERGY: 640 194.4690 671.5396 2850.1468 0.0000 -199297.8238 21172.5068 137.0551 0.0000 0.0000 -174272.1066 0.0000 -174272.1066 -174272.1066 0.0000 15958.0988 -5074.2978 534946.2959 15958.0988 -5074.2978
ENERGY: 660 337.7336 700.4990 2856.4971 0.0000 -200147.1458 21467.4224 152.1514 0.0000 0.0000 -174632.8423 0.0000 -174632.8423 -174632.8423 0.0000 16047.9704 -5092.3536 534946.2959 16047.9704 -5092.3536
ENERGY: 680 187.6074 666.4133 2845.4677 0.0000 -200084.8230 21448.6986 147.3854 0.0000 0.0000 -174789.2506 0.0000 -174789.2506 -174789.2506 0.0000 16103.3324 -5027.2063 534946.2959 16103.3324 -5027.2063
ENERGY: 700 223.3632 652.9661 2841.0168 0.0000 -200521.5174 21618.2850 150.6147 0.0000 0.0000 -175035.2717 0.0000 -175035.2717 -175035.2717 0.0000 16180.2735 -4977.2490 534946.2959 16180.2735 -4977.2490
TCL: Setting parameter constraintScaling to 0.078125
TCL: Minimizing for 100 steps
ETITLE: TS BOND ANGLE DIHED IMPRP ELECT VDW BOUNDARY MISC KINETIC TOTAL TEMP POTENTIAL TOTAL3 TEMPAVG PRESSURE GPRESSURE VOLUME PRESSAVG GPRESSAVG
ENERGY: 700 223.3632 652.9661 2841.0168 0.0000 -200521.5174 21618.2850 75.3074 0.0000 0.0000 -175110.5791 0.0000 -175110.5791 -175110.5791 0.0000 16253.1378 -27163.0004 534946.2959 16253.1378 -27163.0004
ENERGY: 720 157.3057 641.2114 2840.1276 0.0000 -200631.8837 21648.2246 77.6510 0.0000 0.0000 -175267.3633 0.0000 -175267.3633 -175267.3633 0.0000 16264.3580 -4928.2306 534946.2959 16264.3580 -4928.2306
ENERGY: 740 181.0560 649.4103 2837.1019 0.0000 -201005.4044 21779.9561 82.0346 0.0000 0.0000 -175475.8454 0.0000 -175475.8454 -175475.8454 0.0000 16298.2487 -4928.0442 534946.2959 16298.2487 -4928.0442
ENERGY: 760 261.8445 665.6376 2838.6703 0.0000 -201517.4697 21978.5454 86.7067 0.0000 0.0000 -175686.0653 0.0000 -175686.0653 -175686.0653 0.0000 16375.8647 -4912.8679 534946.2959 16375.8647 -4912.8679
ENERGY: 780 288.9192 670.6971 2832.8696 0.0000 -201980.4147 22171.4425 89.6372 0.0000 0.0000 -175926.8490 0.0000 -175926.8490 -175926.8490 0.0000 16531.6386 -4827.0821 534946.2959 16531.6386 -4827.0821
ENERGY: 800 167.9849 655.7448 2830.0987 0.0000 -202103.8836 22203.0488 91.1037 0.0000 0.0000 -176155.9027 0.0000 -176155.9027 -176155.9027 0.0000 16516.8322 -4837.0185 534946.2959 16516.8322 -4837.0185
TCL: Setting parameter constraintScaling to 0.0390625
TCL: Minimizing for 100 steps
ETITLE: TS BOND ANGLE DIHED IMPRP ELECT VDW BOUNDARY MISC KINETIC TOTAL TEMP POTENTIAL TOTAL3 TEMPAVG PRESSURE GPRESSURE VOLUME PRESSAVG GPRESSAVG
ENERGY: 800 167.9849 655.7448 2830.0987 0.0000 -202103.8836 22203.0488 45.5519 0.0000 0.0000 -176201.4546 0.0000 -176201.4546 -176201.4546 0.0000 16557.6248 -27237.5725 534946.2959 16557.6248 -27237.5725
ENERGY: 820 164.5560 655.7856 2827.8480 0.0000 -202575.0219 22387.2649 48.9587 0.0000 0.0000 -176490.6088 0.0000 -176490.6088 -176490.6088 0.0000 16649.5718 -4771.9956 534946.2959 16649.5718 -4771.9956
ENERGY: 840 162.7792 660.1360 2823.2804 0.0000 -203121.1187 22614.6136 51.6425 0.0000 0.0000 -176808.6670 0.0000 -176808.6670 -176808.6670 0.0000 16776.5617 -4714.4388 534946.2959 16776.5617 -4714.4388
ENERGY: 860 244.1606 737.4260 2828.8231 0.0000 -203525.5147 22788.2605 54.0604 0.0000 0.0000 -176872.7841 0.0000 -176872.7841 -176872.7841 0.0000 16905.9650 -4672.5141 534946.2959 16905.9650 -4672.5141
ENERGY: 880 196.1212 656.1428 2820.6236 0.0000 -203833.3094 22923.1012 54.9129 0.0000 0.0000 -177182.4077 0.0000 -177182.4077 -177182.4077 0.0000 16892.4835 -4653.9985 534946.2959 16892.4835 -4653.9985
ENERGY: 900 173.9093 658.4167 2814.8441 0.0000 -204697.3899 23334.1596 58.9818 0.0000 0.0000 -177657.0784 0.0000 -177657.0784 -177657.0784 0.0000 17161.6205 -4510.8314 534946.2959 17161.6205 -4510.8314
TCL: Setting parameter constraintScaling to 0.01953125
TCL: Minimizing for 100 steps
ETITLE: TS BOND ANGLE DIHED IMPRP ELECT VDW BOUNDARY MISC KINETIC TOTAL TEMP POTENTIAL TOTAL3 TEMPAVG PRESSURE GPRESSURE VOLUME PRESSAVG GPRESSAVG
ENERGY: 900 173.9093 658.4167 2814.8441 0.0000 -204697.3899 23334.1596 29.4909 0.0000 0.0000 -177686.5693 0.0000 -177686.5693 -177686.5693 0.0000 17185.9542 -27230.9440 534946.2959 17185.9542 -27230.9440
ENERGY: 920 164.4464 653.2882 2814.6706 0.0000 -204806.8725 23367.7450 30.2178 0.0000 0.0000 -177776.5045 0.0000 -177776.5045 -177776.5045 0.0000 17164.3443 -4509.2815 534946.2959 17164.3443 -4509.2815
ENERGY: 940 195.2181 662.6075 2814.3907 0.0000 -205112.1192 23502.1951 31.3948 0.0000 0.0000 -177906.3130 0.0000 -177906.3130 -177906.3130 0.0000 17204.3894 -4499.4558 534946.2959 17204.3894 -4499.4558
ENERGY: 960 162.8411 659.3724 2811.9150 0.0000 -205219.6338 23536.1007 31.8748 0.0000 0.0000 -178017.5297 0.0000 -178017.5297 -178017.5297 0.0000 17261.5034 -4474.6530 534946.2959 17261.5034 -4474.6530
ENERGY: 980 188.3016 673.2988 2811.2644 0.0000 -205602.8306 23704.3706 32.5679 0.0000 0.0000 -178193.0273 0.0000 -178193.0273 -178193.0273 0.0000 17395.6823 -4400.8441 534946.2959 17395.6823 -4400.8441
ENERGY: 1000 170.6397 652.1221 2811.3623 0.0000 -205876.2716 23837.3260 33.2613 0.0000 0.0000 -178371.5602 0.0000 -178371.5602 -178371.5602 0.0000 17417.5625 -4380.3692 534946.2959 17417.5625 -4380.3692
TCL: Setting parameter constraintScaling to 0
TCL: Minimizing for 5000 steps
ETITLE: TS BOND ANGLE DIHED IMPRP ELECT VDW BOUNDARY MISC KINETIC TOTAL TEMP POTENTIAL TOTAL3 TEMPAVG PRESSURE GPRESSURE VOLUME PRESSAVG GPRESSAVG
ENERGY: 1000 170.6397 652.1221 2811.3623 0.0000 -205876.2716 23837.3260 0.0000 0.0000 0.0000 -178404.8215 0.0000 -178404.8215 -178404.8215 0.0000 17444.0161 -27260.1432 534946.2959 17444.0161 -27260.1432
ENERGY: 2000 196.1094 665.9591 2801.5250 0.0000 -214754.5945 27837.0235 0.0000 0.0000 0.0000 -183253.9776 0.0000 -183253.9776 -183253.9776 0.0000 19560.2852 -3244.6244 534946.2959 19560.2852 -3244.6244
ENERGY: 3000 167.1702 663.1839 2797.3610 0.0000 -217389.3619 28815.6533 0.0000 0.0000 0.0000 -184945.9935 0.0000 -184945.9935 -184945.9935 0.0000 20076.4037 -2996.2756 534946.2959 20076.4037 -2996.2756
ENERGY: 4000 165.7222 661.0385 2788.5226 0.0000 -218629.9533 29324.0175 0.0000 0.0000 0.0000 -185690.6525 0.0000 -185690.6525 -185690.6525 0.0000 20341.1480 -2862.3796 534946.2959 20341.1480 -2862.3796
ENERGY: 5000 168.8426 664.5744 2788.3388 0.0000 -219342.8915 29588.4153 0.0000 0.0000 0.0000 -186132.7205 0.0000 -186132.7205 -186132.7205 0.0000 20476.5092 -2800.4473 534946.2959 20476.5092 -2800.4473
ENERGY: 6000 166.5445 663.5030 2785.4031 0.0000 -219848.1501 29811.7766 0.0000 0.0000 0.0000 -186420.9230 0.0000 -186420.9230 -186420.9230 0.0000 20598.9670 -2730.2974 534946.2959 20598.9670 -2730.2974
