Info: SIMULATION PARAMETERS:
Info: TIMESTEP               2
Info: NUMBER OF STEPS        0
Info: STEPS PER CYCLE        10
Info: PERIODIC CELL BASIS 1  72.449 0 0
Info: PERIODIC CELL BASIS 2  0 93.247 0
Info: PERIODIC CELL BASIS 3  0 0 79.185
Info: PERIODIC CELL CENTER   -0.248 -0.156 -0.047
Info: WRAPPING WATERS AROUND PERIODIC BOUNDARIES ON OUTPUT.
Info: WRAPPING ALL CLUSTERS AROUND PERIODIC BOUNDARIES ON OUTPUT.
Info: FIRST LDB TIMESTEP     50
Info: LAST LDB TIMESTEP     -1
Info: HOM BACKGROUND SCALING 1
Info: PME BACKGROUND SCALING 1
Info: MIN ATOMS PER PATCH    40
Info: INITIAL TEMPERATURE    0
Info: CENTER OF MASS MOVING INITIALLY? NO
Info: DIELECTRIC             1
Info: EXCLUDE                SCALED ONE-FOUR
Info: 1-4 ELECTROSTATICS SCALED BY 0.833333
Info: MODIFIED 1-4 VDW PARAMETERS WILL BE USED
Info: NO DCD TRAJECTORY OUTPUT
Info: NO EXTENDED SYSTEM TRAJECTORY OUTPUT
Info: NO VELOCITY DCD OUTPUT
Info: NO FORCE DCD OUTPUT
Info: OUTPUT FILENAME        ../replicas/rep10/equilibration/eq0
Info: NO RESTART FILE
Info: SWITCHING ACTIVE
Info: SWITCHING ON           10
Info: SWITCHING OFF          12
Info: PAIRLIST DISTANCE      13.5
Info: PAIRLIST SHRINK RATE   0.01
Info: PAIRLIST GROW RATE     0.01
Info: PAIRLIST TRIGGER       0.3
Info: PAIRLISTS PER CYCLE    2
Info: PAIRLISTS ENABLED
Info: MARGIN                 0
Info: HYDROGEN GROUP CUTOFF  2.5
Info: PATCH DIMENSION        16
Info: ENERGY OUTPUT STEPS    500
Info: CROSSTERM ENERGY INCLUDED IN DIHEDRAL
Info: TIMING OUTPUT STEPS    5000
Info: PRESSURE OUTPUT STEPS  500
Info: HARMONIC CONSTRAINTS ACTIVE
Info: HARMONIC CONS EXP      2
Info: HARMONIC CONS SCALING  10
Info: CONJUGATE GRADIENT MINIMIZATION ACTIVE
Info: LINE MINIMIZATION GOAL = 0.001
Info: BABY STEP SIZE = 0.01
Info: TINY STEP SIZE = 1e-06
Info: PARTICLE MESH EWALD (PME) ACTIVE
Info: PME TOLERANCE               1e-06
Info: PME EWALD COEFFICIENT       0.257952
Info: PME INTERPOLATION ORDER     4
Info: PME GRID DIMENSIONS         80 96 80
Info: PME MAXIMUM GRID SPACING    1
Info: FULL ELECTROSTATIC EVALUATION FREQUENCY      2
Info: USING VERLET I (r-RESPA) MTS SCHEME.
Info: C1 SPLITTING OF LONG RANGE ELECTROSTATICS
Info: PLACING ATOMS IN PATCHES BY HYDROGEN GROUPS
Info: RIGID BONDS TO HYDROGEN : ALL
Info:         ERROR TOLERANCE : 1e-05
Info:          MAX ITERATIONS : 100
Info: RIGID WATER USING SETTLE ALGORITHM
Info: RANDOM NUMBER SEED     1503252820
Info: USE HYDROGEN BONDS?    NO
Info: Using AMBER format force field!
Info: AMBER PARM FILE        ../build/complex.top
Info: COORDINATE PDB         ../build/complex.pdb
Info: Exclusions in PARM file will be ignored!
Info: SCNB (VDW SCALING)     2
Info: USING ARITHMETIC MEAN TO COMBINE L-J SIGMA PARAMETERS
Info: SUMMARY OF PARAMETERS:
Info: 71 BONDS
Info: 145 ANGLES
Info: 76 DIHEDRAL
Info: 0 IMPROPER
Info: 0 CROSSTERM
Info: 0 VDW
Info: 190 VDW_PAIRS
Info: 0 NBTHOLE_PAIRS
Info: STRUCTURE SUMMARY:
Info: 49394 ATOMS
Info: 49448 BONDS
Info: 8698 ANGLES
Info: 18780 DIHEDRALS
Info: 0 IMPROPERS
Info: 0 CROSSTERMS
Info: 0 EXCLUSIONS
Info: 2336 CONSTRAINTS
Info: 47058 RIGID BONDS
Info: 101124 DEGREES OF FREEDOM
Info: 17225 HYDROGEN GROUPS
Info: 4 ATOMS IN LARGEST HYDROGEN GROUP
Info: 17225 MIGRATION GROUPS
Info: 4 ATOMS IN LARGEST MIGRATION GROUP
Info: TOTAL MASS = 301478 amu
Info: TOTAL CHARGE = 1.00115e-05 e
Info: MASS DENSITY = 0.935846 g/cm^3
Info: ATOM DENSITY = 0.0923345 atoms/A^3
Info: ADDED 70656 IMPLICIT EXCLUSIONS
Info: NONBONDED TABLE R-SQUARED SPACING: 0.0625
Info: NONBONDED TABLE SIZE: 769 POINTS
Info: REMOVING COM VELOCITY 0 0 0
TCL: Minimizing for 100 steps
ETITLE: TS BOND ANGLE DIHED IMPRP ELECT VDW BOUNDARY MISC KINETIC TOTAL TEMP POTENTIAL TOTAL3 TEMPAVG PRESSURE GPRESSURE VOLUME PRESSAVG GPRESSAVG
ENERGY: 0 155.4176 1012.2698 2855.7272 0.0000 -154496.7910 207729.2052 0.0468 0.0000 0.0000 57255.8756 0.0000 57255.8756 57255.8756 0.0000 116350.2532 86546.1670 534946.2959 116350.2532 86546.1670
ENERGY: 20 304.7564 935.7913 2893.4663 0.0000 -158672.9417 17936.6589 143.9455 0.0000 0.0000 -136458.3233 0.0000 -136458.3233 -136458.3233 0.0000 16523.9381 -239.4564 534946.2959 16523.9381 -239.4564
ENERGY: 40 198.7476 799.5732 2896.9273 0.0000 -162811.4524 16417.9539 221.3031 0.0000 0.0000 -142276.9473 0.0000 -142276.9473 -142276.9473 0.0000 15011.2704 -2135.4696 534946.2959 15011.2704 -2135.4696
ENERGY: 60 130.5280 715.3439 2898.2166 0.0000 -167496.1597 15446.7535 315.2797 0.0000 0.0000 -147990.0380 0.0000 -147990.0380 -147990.0380 0.0000 13793.8831 -3799.3995 534946.2959 13793.8831 -3799.3995
ENERGY: 80 431.2702 765.6301 2904.3789 0.0000 -169937.5393 15121.1513 372.0125 0.0000 0.0000 -150343.0963 0.0000 -150343.0963 -150343.0963 0.0000 13270.3282 -4577.2478 534946.2959 13270.3282 -4577.2478
ENERGY: 100 129.7120 708.0642 2904.2782 0.0000 -171050.0675 15018.6536 384.2002 0.0000 0.0000 -151905.1592 0.0000 -151905.1592 -151905.1592 0.0000 13092.9126 -4843.6311 534946.2959 13092.9126 -4843.6311
TCL: Setting parameter constraintScaling to 5.0
TCL: Minimizing for 100 steps
ETITLE: TS BOND ANGLE DIHED IMPRP ELECT VDW BOUNDARY MISC KINETIC TOTAL TEMP POTENTIAL TOTAL3 TEMPAVG PRESSURE GPRESSURE VOLUME PRESSAVG GPRESSAVG
ENERGY: 100 129.7120 708.0642 2904.2782 0.0000 -171050.0674 15018.6536 192.1001 0.0000 0.0000 -152097.2593 0.0000 -152097.2593 -152097.2593 0.0000 13703.5079 -22944.4549 534946.2959 13703.5079 -22944.4549
ENERGY: 120 118.6815 680.2873 2909.9067 0.0000 -172396.3096 14830.1207 259.9548 0.0000 0.0000 -153597.3585 0.0000 -153597.3585 -153597.3585 0.0000 13320.9482 -4756.3060 534946.2959 13320.9482 -4756.3060
ENERGY: 140 109.1472 671.1467 2912.0863 0.0000 -174830.2434 14716.1440 337.7303 0.0000 0.0000 -156083.9889 0.0000 -156083.9889 -156083.9889 0.0000 12908.9621 -5423.1411 534946.2959 12908.9621 -5423.1411
ENERGY: 160 302.9675 691.2587 2915.1765 0.0000 -176082.5738 14739.2650 369.8376 0.0000 0.0000 -157064.0686 0.0000 -157064.0686 -157064.0686 0.0000 12780.5550 -5683.0022 534946.2959 12780.5550 -5683.0022
ENERGY: 180 182.1762 640.7538 2917.0634 0.0000 -177289.4657 14805.0609 391.8983 0.0000 0.0000 -158352.5131 0.0000 -158352.5131 -158352.5131 0.0000 12715.3575 -5872.2349 534946.2959 12715.3575 -5872.2349
ENERGY: 200 200.8476 672.8059 2923.8865 0.0000 -179262.8004 15029.6399 438.8781 0.0000 0.0000 -159996.7425 0.0000 -159996.7425 -159996.7425 0.0000 12652.1147 -6148.9148 534946.2959 12652.1147 -6148.9148
TCL: Setting parameter constraintScaling to 2.5
TCL: Minimizing for 100 steps
ETITLE: TS BOND ANGLE DIHED IMPRP ELECT VDW BOUNDARY MISC KINETIC TOTAL TEMP POTENTIAL TOTAL3 TEMPAVG PRESSURE GPRESSURE VOLUME PRESSAVG GPRESSAVG
ENERGY: 200 200.8476 672.8059 2923.8865 0.0000 -179262.8004 15029.6399 219.4390 0.0000 0.0000 -160216.1815 0.0000 -160216.1815 -160216.1815 0.0000 13194.5789 -25233.9218 534946.2959 13194.5789 -25233.9218
ENERGY: 220 129.4119 648.3957 2922.2169 0.0000 -180050.2373 15072.5490 269.1011 0.0000 0.0000 -161008.5627 0.0000 -161008.5627 -161008.5627 0.0000 13073.4130 -5822.6969 534946.2959 13073.4130 -5822.6969
ENERGY: 240 166.7444 631.3569 2922.8558 0.0000 -181876.8884 15336.5413 358.8896 0.0000 0.0000 -162460.5006 0.0000 -162460.5006 -162460.5006 0.0000 12913.8634 -6153.1156 534946.2959 12913.8634 -6153.1156
ENERGY: 260 364.6674 681.2801 2926.7416 0.0000 -184018.8502 15848.5530 463.4065 0.0000 0.0000 -163734.2016 0.0000 -163734.2016 -163734.2016 0.0000 12946.4151 -6367.5643 534946.2959 12946.4151 -6367.5643
ENERGY: 280 203.5411 655.0040 2926.4796 0.0000 -186025.5403 16581.7700 535.0794 0.0000 0.0000 -165123.6662 0.0000 -165123.6662 -165123.6662 0.0000 13152.4034 -6366.1169 534946.2959 13152.4034 -6366.1169
ENERGY: 300 129.0204 634.4192 2921.8494 0.0000 -187696.1211 17313.3119 557.0897 0.0000 0.0000 -166140.4304 0.0000 -166140.4304 -166140.4304 0.0000 13543.3456 -6170.9584 534946.2959 13543.3456 -6170.9584
TCL: Setting parameter constraintScaling to 1.25
TCL: Minimizing for 100 steps
ETITLE: TS BOND ANGLE DIHED IMPRP ELECT VDW BOUNDARY MISC KINETIC TOTAL TEMP POTENTIAL TOTAL3 TEMPAVG PRESSURE GPRESSURE VOLUME PRESSAVG GPRESSAVG
ENERGY: 300 129.0204 634.4192 2921.8494 0.0000 -187696.1211 17313.3119 278.5449 0.0000 0.0000 -166418.9753 0.0000 -166418.9753 -166418.9753 0.0000 14034.5626 -26322.7503 534946.2959 14034.5626 -26322.7503
ENERGY: 320 135.0863 631.7490 2912.3658 0.0000 -188176.9461 17273.0076 319.0287 0.0000 0.0000 -166905.7086 0.0000 -166905.7086 -166905.7086 0.0000 13912.8007 -5866.8099 534946.2959 13912.8007 -5866.8099
ENERGY: 340 211.4075 635.8347 2899.3818 0.0000 -189835.6841 17640.6113 390.4865 0.0000 0.0000 -168057.9623 0.0000 -168057.9623 -168057.9623 0.0000 13921.3750 -6039.7269 534946.2959 13921.3750 -6039.7269
ENERGY: 360 237.0749 646.5468 2908.6103 0.0000 -190656.3816 17968.1076 381.2663 0.0000 0.0000 -168514.7759 0.0000 -168514.7759 -168514.7759 0.0000 14085.1492 -5960.6079 534946.2959 14085.1492 -5960.6079
ENERGY: 380 182.2360 649.9792 2905.0603 0.0000 -192260.1713 18779.3880 365.0373 0.0000 0.0000 -169378.4706 0.0000 -169378.4706 -169378.4706 0.0000 14623.9307 -5630.2633 534946.2959 14623.9307 -5630.2633
ENERGY: 400 132.0493 639.3685 2909.9278 0.0000 -194060.1071 19679.0764 407.6855 0.0000 0.0000 -170291.9995 0.0000 -170291.9995 -170291.9995 0.0000 14985.5188 -5453.0231 534946.2959 14985.5188 -5453.0231
TCL: Setting parameter constraintScaling to 0.625
TCL: Minimizing for 100 steps
ETITLE: TS BOND ANGLE DIHED IMPRP ELECT VDW BOUNDARY MISC KINETIC TOTAL TEMP POTENTIAL TOTAL3 TEMPAVG PRESSURE GPRESSURE VOLUME PRESSAVG GPRESSAVG
ENERGY: 400 132.0493 639.3685 2909.9278 0.0000 -194060.1071 19679.0764 203.8428 0.0000 0.0000 -170495.8423 0.0000 -170495.8423 -170495.8423 0.0000 15288.8985 -26605.5824 534946.2959 15288.8985 -26605.5824
ENERGY: 420 239.8726 641.6224 2887.5841 0.0000 -194353.0276 19504.8288 238.1398 0.0000 0.0000 -170840.9798 0.0000 -170840.9798 -170840.9798 0.0000 15099.8431 -5377.6910 534946.2959 15099.8431 -5377.6910
ENERGY: 440 313.9768 672.5374 2879.4783 0.0000 -195057.8713 19642.6404 286.7281 0.0000 0.0000 -171262.5104 0.0000 -171262.5104 -171262.5104 0.0000 15075.2975 -5488.8241 534946.2959 15075.2975 -5488.8241
ENERGY: 460 168.3938 646.3459 2883.7169 0.0000 -195156.6434 19682.1905 280.9292 0.0000 0.0000 -171495.0670 0.0000 -171495.0670 -171495.0670 0.0000 15130.1343 -5434.6568 534946.2959 15130.1343 -5434.6568
ENERGY: 480 147.2443 632.0275 2877.4921 0.0000 -195345.8371 19753.6864 285.6396 0.0000 0.0000 -171649.7472 0.0000 -171649.7472 -171649.7472 0.0000 15159.9195 -5426.5166 534946.2959 15159.9195 -5426.5166
ENERGY: 500 168.6927 635.8030 2879.0820 0.0000 -196170.4189 20064.2140 304.2298 0.0000 0.0000 -172118.3975 0.0000 -172118.3975 -172118.3975 0.0000 15288.9358 -5384.7921 534946.2959 15288.9358 -5384.7921
TCL: Setting parameter constraintScaling to 0.3125
TCL: Minimizing for 100 steps
ETITLE: TS BOND ANGLE DIHED IMPRP ELECT VDW BOUNDARY MISC KINETIC TOTAL TEMP POTENTIAL TOTAL3 TEMPAVG PRESSURE GPRESSURE VOLUME PRESSAVG GPRESSAVG
ENERGY: 500 168.6927 635.8030 2879.0820 0.0000 -196170.4189 20064.2140 152.1149 0.0000 0.0000 -172270.5124 0.0000 -172270.5124 -172270.5124 0.0000 15476.8332 -26910.2229 534946.2959 15476.8332 -26910.2229
ENERGY: 520 151.5032 644.9562 2872.4774 0.0000 -196392.9375 20117.9223 165.6143 0.0000 0.0000 -172440.4640 0.0000 -172440.4640 -172440.4640 0.0000 15464.6122 -5244.9341 534946.2959 15464.6122 -5244.9341
ENERGY: 540 170.4578 646.3078 2868.0860 0.0000 -196980.1452 20310.7407 185.0523 0.0000 0.0000 -172799.5007 0.0000 -172799.5007 -172799.5007 0.0000 15495.5359 -5280.1929 534946.2959 15495.5359 -5280.1929
ENERGY: 560 156.7082 641.7264 2865.2413 0.0000 -197679.6707 20562.8260 206.2377 0.0000 0.0000 -173246.9311 0.0000 -173246.9311 -173246.9311 0.0000 15593.8379 -5257.5481 534946.2959 15593.8379 -5257.5481
ENERGY: 580 189.3039 680.5344 2865.3160 0.0000 -198125.2801 20735.8207 211.8835 0.0000 0.0000 -173442.4215 0.0000 -173442.4215 -173442.4215 0.0000 15711.3475 -5202.7817 534946.2959 15711.3475 -5202.7817
ENERGY: 600 180.7995 654.8151 2860.4070 0.0000 -199030.1646 21105.0593 220.5363 0.0000 0.0000 -174008.5473 0.0000 -174008.5473 -174008.5473 0.0000 15905.2721 -5118.6834 534946.2959 15905.2721 -5118.6834
TCL: Setting parameter constraintScaling to 0.15625
TCL: Minimizing for 100 steps
ETITLE: TS BOND ANGLE DIHED IMPRP ELECT VDW BOUNDARY MISC KINETIC TOTAL TEMP POTENTIAL TOTAL3 TEMPAVG PRESSURE GPRESSURE VOLUME PRESSAVG GPRESSAVG
ENERGY: 600 180.7995 654.8151 2860.4070 0.0000 -199030.1646 21105.0593 110.2682 0.0000 0.0000 -174118.8155 0.0000 -174118.8155 -174118.8155 0.0000 16025.0080 -27042.0492 534946.2959 16025.0080 -27042.0492
ENERGY: 620 158.5991 640.0936 2855.1537 0.0000 -199221.4853 21150.1693 117.2914 0.0000 0.0000 -174300.1782 0.0000 -174300.1782 -174300.1782 0.0000 16021.0925 -5018.7510 534946.2959 16021.0925 -5018.7510
ENERGY: 640 353.0452 712.0112 2854.3143 0.0000 -200108.0243 21458.2511 145.9613 0.0000 0.0000 -174584.4413 0.0000 -174584.4413 -174584.4413 0.0000 16022.6056 -5103.9450 534946.2959 16022.6056 -5103.9450
ENERGY: 660 191.5053 663.2140 2846.4121 0.0000 -200496.0099 21593.0084 145.9518 0.0000 0.0000 -175055.9184 0.0000 -175055.9184 -175055.9184 0.0000 16105.2068 -5058.1261 534946.2959 16105.2068 -5058.1261
ENERGY: 680 309.0656 693.7338 2849.9884 0.0000 -201062.7134 21848.3420 144.7422 0.0000 0.0000 -175216.8413 0.0000 -175216.8413 -175216.8413 0.0000 16339.2040 -4906.0492 534946.2959 16339.2040 -4906.0492
ENERGY: 700 169.9792 650.6378 2841.5253 0.0000 -201587.2712 22045.6649 151.8817 0.0000 0.0000 -175727.5822 0.0000 -175727.5822 -175727.5822 0.0000 16469.3460 -4856.8082 534946.2959 16469.3460 -4856.8082
TCL: Setting parameter constraintScaling to 0.078125
TCL: Minimizing for 100 steps
ETITLE: TS BOND ANGLE DIHED IMPRP ELECT VDW BOUNDARY MISC KINETIC TOTAL TEMP POTENTIAL TOTAL3 TEMPAVG PRESSURE GPRESSURE VOLUME PRESSAVG GPRESSAVG
ENERGY: 700 169.9792 650.6378 2841.5253 0.0000 -201587.2712 22045.6649 75.9408 0.0000 0.0000 -175803.5231 0.0000 -175803.5231 -175803.5231 0.0000 16542.1928 -27143.0740 534946.2959 16542.1928 -27143.0740
ENERGY: 720 156.8661 642.8642 2834.7119 0.0000 -201815.3897 22112.6477 80.6905 0.0000 0.0000 -175987.6093 0.0000 -175987.6093 -175987.6093 0.0000 16519.6730 -4828.7610 534946.2959 16519.6730 -4828.7610
ENERGY: 740 167.0376 668.4377 2834.6922 0.0000 -202297.6482 22275.7824 89.5330 0.0000 0.0000 -176262.1652 0.0000 -176262.1652 -176262.1652 0.0000 16542.2935 -4846.1940 534946.2959 16542.2935 -4846.1940
ENERGY: 760 167.7094 656.0520 2831.4035 0.0000 -202447.8985 22353.1672 88.6999 0.0000 0.0000 -176350.8665 0.0000 -176350.8665 -176350.8665 0.0000 16598.2180 -4815.7465 534946.2959 16598.2180 -4815.7465
ENERGY: 780 155.9944 648.1061 2838.3474 0.0000 -203058.3720 22650.0478 90.0476 0.0000 0.0000 -176675.8288 0.0000 -176675.8288 -176675.8288 0.0000 16826.3436 -4670.0584 534946.2959 16826.3436 -4670.0584
ENERGY: 800 181.1532 667.5008 2832.0242 0.0000 -203677.7030 22919.4921 96.6822 0.0000 0.0000 -176980.8505 0.0000 -176980.8505 -176980.8505 0.0000 16916.1250 -4631.0310 534946.2959 16916.1250 -4631.0310
TCL: Setting parameter constraintScaling to 0.0390625
TCL: Minimizing for 100 steps
ETITLE: TS BOND ANGLE DIHED IMPRP ELECT VDW BOUNDARY MISC KINETIC TOTAL TEMP POTENTIAL TOTAL3 TEMPAVG PRESSURE GPRESSURE VOLUME PRESSAVG GPRESSAVG
ENERGY: 800 181.1532 667.5008 2832.0242 0.0000 -203677.7030 22919.4921 48.3411 0.0000 0.0000 -177029.1916 0.0000 -177029.1916 -177029.1916 0.0000 16958.3956 -27230.6042 534946.2959 16958.3956 -27230.6042
ENERGY: 820 166.7386 645.9614 2823.4091 0.0000 -203853.1595 22955.0924 50.5664 0.0000 0.0000 -177211.3916 0.0000 -177211.3916 -177211.3916 0.0000 16931.9797 -4639.0015 534946.2959 16931.9797 -4639.0015
ENERGY: 840 169.2877 652.6390 2820.4716 0.0000 -204118.0218 23048.3518 53.6345 0.0000 0.0000 -177373.6372 0.0000 -177373.6372 -177373.6372 0.0000 16952.6463 -4646.1290 534946.2959 16952.6463 -4646.1290
ENERGY: 860 160.7479 662.5538 2823.8693 0.0000 -204448.9790 23213.1224 53.5720 0.0000 0.0000 -177535.1137 0.0000 -177535.1137 -177535.1137 0.0000 17130.1053 -4529.5699 534946.2959 17130.1053 -4529.5699
ENERGY: 880 182.4493 665.6283 2825.7689 0.0000 -204824.9772 23397.6326 55.1640 0.0000 0.0000 -177698.3342 0.0000 -177698.3342 -177698.3342 0.0000 17242.6130 -4472.1705 534946.2959 17242.6130 -4472.1705
ENERGY: 900 177.5638 660.5730 2817.6189 0.0000 -204948.5259 23409.0871 57.5269 0.0000 0.0000 -177826.1562 0.0000 -177826.1562 -177826.1562 0.0000 17153.4092 -4536.2339 534946.2959 17153.4092 -4536.2339
TCL: Setting parameter constraintScaling to 0.01953125
TCL: Minimizing for 100 steps
ETITLE: TS BOND ANGLE DIHED IMPRP ELECT VDW BOUNDARY MISC KINETIC TOTAL TEMP POTENTIAL TOTAL3 TEMPAVG PRESSURE GPRESSURE VOLUME PRESSAVG GPRESSAVG
ENERGY: 900 177.5638 660.5730 2817.6189 0.0000 -204948.5259 23409.0871 28.7634 0.0000 0.0000 -177854.9196 0.0000 -177854.9196 -177854.9196 0.0000 17176.8164 -27304.9043 534946.2959 17176.8164 -27304.9043
ENERGY: 920 160.4065 651.7232 2813.1911 0.0000 -205006.3104 23437.1793 28.8675 0.0000 0.0000 -177914.9427 0.0000 -177914.9427 -177914.9427 0.0000 17236.3034 -4480.6672 534946.2959 17236.3034 -4480.6672
ENERGY: 940 226.0149 684.0415 2813.8049 0.0000 -205494.0440 23650.2046 30.8959 0.0000 0.0000 -178089.0822 0.0000 -178089.0822 -178089.0822 0.0000 17341.6444 -4453.7749 534946.2959 17341.6444 -4453.7749
ENERGY: 960 165.5733 648.6272 2810.6175 0.0000 -205496.5273 23650.8211 30.7428 0.0000 0.0000 -178190.1453 0.0000 -178190.1453 -178190.1453 0.0000 17303.9347 -4455.1280 534946.2959 17303.9347 -4455.1280
ENERGY: 980 268.4644 663.9684 2813.7306 0.0000 -205812.6497 23787.4229 31.8045 0.0000 0.0000 -178247.2588 0.0000 -178247.2588 -178247.2588 0.0000 17248.7024 -4511.3419 534946.2959 17248.7024 -4511.3419
ENERGY: 1000 168.4995 655.9916 2807.9569 0.0000 -206148.0825 23934.0275 32.8185 0.0000 0.0000 -178548.7884 0.0000 -178548.7884 -178548.7884 0.0000 17483.9619 -4368.2111 534946.2959 17483.9619 -4368.2111
TCL: Setting parameter constraintScaling to 0
TCL: Minimizing for 5000 steps
ETITLE: TS BOND ANGLE DIHED IMPRP ELECT VDW BOUNDARY MISC KINETIC TOTAL TEMP POTENTIAL TOTAL3 TEMPAVG PRESSURE GPRESSURE VOLUME PRESSAVG GPRESSAVG
ENERGY: 1000 168.4995 655.9916 2807.9569 0.0000 -206148.0825 23934.0275 0.0000 0.0000 0.0000 -178581.6069 0.0000 -178581.6069 -178581.6069 0.0000 17509.5910 -27257.3917 534946.2959 17509.5910 -27257.3917
ENERGY: 2000 167.3518 663.9134 2804.3066 0.0000 -214672.0321 27676.8119 0.0000 0.0000 0.0000 -183359.6484 0.0000 -183359.6484 -183359.6484 0.0000 19474.5229 -3321.8715 534946.2959 19474.5229 -3321.8715
ENERGY: 3000 166.9986 662.7807 2795.0542 0.0000 -217448.7494 28881.6874 0.0000 0.0000 0.0000 -184942.2284 0.0000 -184942.2284 -184942.2284 0.0000 20116.3659 -2965.3810 534946.2959 20116.3659 -2965.3810
ENERGY: 4000 175.1148 664.3559 2790.8264 0.0000 -218824.2284 29375.8350 0.0000 0.0000 0.0000 -185818.0963 0.0000 -185818.0963 -185818.0963 0.0000 20368.9402 -2866.1837 534946.2959 20368.9402 -2866.1837
ENERGY: 5000 165.0812 662.9605 2793.5900 0.0000 -219578.8261 29737.2463 0.0000 0.0000 0.0000 -186219.9482 0.0000 -186219.9482 -186219.9482 0.0000 20559.6806 -2746.9303 534946.2959 20559.6806 -2746.9303
ENERGY: 6000 165.5572 662.9514 2795.5142 0.0000 -219970.6341 29894.7544 0.0000 0.0000 0.0000 -186451.8569 0.0000 -186451.8569 -186451.8569 0.0000 20636.6964 -2717.6995 534946.2959 20636.6964 -2717.6995
