Info: SIMULATION PARAMETERS:
Info: TIMESTEP               1
Info: NUMBER OF STEPS        0
Info: STEPS PER CYCLE        10
Info: PERIODIC CELL BASIS 1  72.449 0 0
Info: PERIODIC CELL BASIS 2  0 93.247 0
Info: PERIODIC CELL BASIS 3  0 0 79.185
Info: PERIODIC CELL CENTER   -0.248 -0.156 -0.047
Info: WRAPPING WATERS AROUND PERIODIC BOUNDARIES ON OUTPUT.
Info: WRAPPING ALL CLUSTERS AROUND PERIODIC BOUNDARIES ON OUTPUT.
Info: FIRST LDB TIMESTEP     50
Info: LAST LDB TIMESTEP     -1
Info: HOM BACKGROUND SCALING 1
Info: PME BACKGROUND SCALING 1
Info: MIN ATOMS PER PATCH    40
Info: VELOCITY FILE          ../replicas/rep11/equilibration/eq1.vel
Info: CENTER OF MASS MOVING INITIALLY? NO
Info: DIELECTRIC             1
Info: EXCLUDE                SCALED ONE-FOUR
Info: 1-4 ELECTROSTATICS SCALED BY 0.833333
Info: MODIFIED 1-4 VDW PARAMETERS WILL BE USED
Info: DCD FILENAME           ../replicas/rep11/equilibration/eq2.dcd
Info: DCD FREQUENCY          5000
Info: DCD FIRST STEP         5000
Info: DCD FILE WILL CONTAIN UNIT CELL DATA
Info: XST FILENAME           ../replicas/rep11/equilibration/eq2.xst
Info: XST FREQUENCY          5000
Info: NO VELOCITY DCD OUTPUT
Info: NO FORCE DCD OUTPUT
Info: OUTPUT FILENAME        ../replicas/rep11/equilibration/eq2
Info: RESTART FILENAME       ../replicas/rep11/equilibration/eq2.restart
Info: RESTART FREQUENCY      5000
Info: BINARY RESTART FILES WILL BE USED
Info: SWITCHING ACTIVE
Info: SWITCHING ON           10
Info: SWITCHING OFF          12
Info: PAIRLIST DISTANCE      13.5
Info: PAIRLIST SHRINK RATE   0.01
Info: PAIRLIST GROW RATE     0.01
Info: PAIRLIST TRIGGER       0.3
Info: PAIRLISTS PER CYCLE    2
Info: PAIRLISTS ENABLED
Info: MARGIN                 0.48
Info: HYDROGEN GROUP CUTOFF  2.5
Info: PATCH DIMENSION        16.48
Info: ENERGY OUTPUT STEPS    500
Info: CROSSTERM ENERGY INCLUDED IN DIHEDRAL
Info: TIMING OUTPUT STEPS    5000
Info: PRESSURE OUTPUT STEPS  500
Info: HARMONIC CONSTRAINTS ACTIVE
Info: HARMONIC CONS EXP      2
Info: HARMONIC CONS SCALING  10
Info: LANGEVIN DYNAMICS ACTIVE
Info: LANGEVIN TEMPERATURE   300
Info: LANGEVIN USING BBK INTEGRATOR
Info: LANGEVIN DAMPING COEFFICIENT IS 5 INVERSE PS
Info: LANGEVIN DYNAMICS NOT APPLIED TO HYDROGENS
Info: BERENDSEN PRESSURE COUPLING ACTIVE
Info:     TARGET PRESSURE IS 1 BAR
Info:     COMPRESSIBILITY ESTIMATE IS 4.57e-05 BAR^(-1)
Info:     RELAXATION TIME IS 100 FS
Info:     APPLIED EVERY 2 STEPS
Info:     PRESSURE CONTROL IS GROUP-BASED
Info:       CELL FLUCTUATION IS ISOTROPIC
Info: PARTICLE MESH EWALD (PME) ACTIVE
Info: PME TOLERANCE               1e-06
Info: PME EWALD COEFFICIENT       0.257952
Info: PME INTERPOLATION ORDER     4
Info: PME GRID DIMENSIONS         80 96 80
Info: PME MAXIMUM GRID SPACING    1
Info: FULL ELECTROSTATIC EVALUATION FREQUENCY      2
Info: USING VERLET I (r-RESPA) MTS SCHEME.
Info: C1 SPLITTING OF LONG RANGE ELECTROSTATICS
Info: PLACING ATOMS IN PATCHES BY HYDROGEN GROUPS
Info: RIGID BONDS TO HYDROGEN : WATER
Info:         ERROR TOLERANCE : 1e-05
Info:          MAX ITERATIONS : 100
Info: RIGID WATER USING SETTLE ALGORITHM
Info: RANDOM NUMBER SEED     1503703563
Info: USE HYDROGEN BONDS?    NO
Info: Using AMBER format force field!
Info: AMBER PARM FILE        ../build/complex.top
Info: COORDINATE PDB         ../replicas/rep11/equilibration/eq1.coor
Info: Exclusions in PARM file will be ignored!
Info: SCNB (VDW SCALING)     2
Info: USING ARITHMETIC MEAN TO COMBINE L-J SIGMA PARAMETERS
Info: SUMMARY OF PARAMETERS:
Info: 71 BONDS
Info: 145 ANGLES
Info: 76 DIHEDRAL
Info: 0 IMPROPER
Info: 0 CROSSTERM
Info: 0 VDW
Info: 190 VDW_PAIRS
Info: 0 NBTHOLE_PAIRS
Info: STRUCTURE SUMMARY:
Info: 49394 ATOMS
Info: 49448 BONDS
Info: 8698 ANGLES
Info: 18780 DIHEDRALS
Info: 0 IMPROPERS
Info: 0 CROSSTERMS
Info: 0 EXCLUSIONS
Info: 2336 CONSTRAINTS
Info: 44667 RIGID BONDS
Info: 103515 DEGREES OF FREEDOM
Info: 17225 HYDROGEN GROUPS
Info: 4 ATOMS IN LARGEST HYDROGEN GROUP
Info: 17225 MIGRATION GROUPS
Info: 4 ATOMS IN LARGEST MIGRATION GROUP
Info: TOTAL MASS = 301478 amu
Info: TOTAL CHARGE = 1.00115e-05 e
Info: MASS DENSITY = 0.935846 g/cm^3
Info: ATOM DENSITY = 0.0923345 atoms/A^3
Info: ADDED 70656 IMPLICIT EXCLUSIONS
Info: NONBONDED TABLE R-SQUARED SPACING: 0.0625
Info: NONBONDED TABLE SIZE: 769 POINTS
Info: REMOVING COM VELOCITY -0.0204765 -0.0044566 0.0121826
TCL: Running for 5000 steps
ETITLE: TS BOND ANGLE DIHED IMPRP ELECT VDW BOUNDARY MISC KINETIC TOTAL TEMP POTENTIAL TOTAL3 TEMPAVG PRESSURE GPRESSURE VOLUME PRESSAVG GPRESSAVG
ENERGY: 0 382.9242 1179.6283 2922.4596 0.0000 -212555.5700 29392.4603 0.0000 0.0000 10084.9120 -168593.1857 98.0526 -178678.0977 -168583.8057 98.0526 -2402.8251 -2504.0929 534946.2959 -2402.8251 -2504.0929
ENERGY: 1000 1199.9510 1989.7398 3103.0805 0.0000 -193462.2594 26586.0308 764.9423 0.0000 24101.3999 -135717.1151 234.3308 -159818.5150 -135683.2873 218.5665 -50.9522 -30.7534 522060.3124 -15.2649 -15.0932
ENERGY: 2000 1433.6474 2133.6099 3150.2654 0.0000 -184242.6865 23222.7092 793.6052 0.0000 27898.5980 -125610.2515 271.2498 -153508.8495 -125576.2142 263.8877 -94.2827 -10.1498 518552.6409 -6.5710 -6.8986
ENERGY: 3000 1542.0946 2201.1533 3138.7563 0.0000 -179475.4835 21527.4382 824.8924 0.0000 29499.8064 -120741.3423 286.8179 -150241.1487 -120698.9342 283.5290 -146.4343 22.0638 510758.4954 -12.7001 -12.0374
ENERGY: 4000 1580.8230 2266.5082 3143.8398 0.0000 -176730.4899 20587.3716 807.7112 0.0000 30305.7841 -118038.4521 294.6542 -148344.2362 -118001.1161 292.6073 -48.3791 -30.6610 507172.8122 -11.4232 -11.2361
ENERGY: 5000 1516.9093 2291.3769 3122.0944 0.0000 -176394.3888 20571.0020 785.2750 0.0000 30744.9297 -117362.8016 298.9239 -148107.7313 -117301.4880 295.7895 -72.4422 1.5509 504303.3099 -14.8883 -14.7092
TCL: Setting parameter constraintScaling to 5.0
TCL: Running for 5000 steps
ETITLE: TS BOND ANGLE DIHED IMPRP ELECT VDW BOUNDARY MISC KINETIC TOTAL TEMP POTENTIAL TOTAL3 TEMPAVG PRESSURE GPRESSURE VOLUME PRESSAVG GPRESSAVG
ENERGY: 5000 1516.9093 2291.3769 3122.0944 0.0000 -176394.3888 20571.0020 392.6375 0.0000 30742.9043 -117757.4646 298.9042 -148500.3688 -117714.9192 298.9042 -24.9066 44.7294 504303.3099 -24.9066 44.7294
ENERGY: 6000 1631.3977 2364.6606 3165.0032 0.0000 -175844.8821 20270.4377 652.1469 0.0000 30788.3169 -116972.9191 299.3457 -147761.2360 -116928.1787 298.5486 -33.5198 -30.3446 502769.8493 -14.2811 -14.5533
ENERGY: 7000 1598.3499 2305.4841 3180.7564 0.0000 -175311.9288 20308.4215 644.8727 0.0000 30532.0620 -116741.9821 296.8542 -147274.0441 -116698.2164 298.7916 -61.9298 24.6086 503922.3031 6.9697 6.8905
ENERGY: 8000 1629.8001 2269.6905 3147.3985 0.0000 -175556.6322 20142.6542 626.9435 0.0000 30898.8059 -116841.3395 300.4200 -147740.1454 -116797.9224 298.5477 -64.3074 2.3380 501572.6619 -8.9897 -9.0383
ENERGY: 9000 1566.6357 2311.2659 3168.3234 0.0000 -175845.5673 20231.5030 608.4701 0.0000 30974.5691 -116984.8002 301.1566 -147959.3693 -116941.9874 299.3413 -65.3117 -21.4193 501658.1256 -4.4520 -4.1289
ENERGY: 10000 1631.9167 2293.6192 3172.0078 0.0000 -175095.6053 19835.2977 663.5627 0.0000 30759.3323 -116739.8688 299.0639 -147499.2011 -116684.6545 299.9920 -89.8732 -23.9059 501788.0311 13.5570 13.3830
TCL: Setting parameter constraintScaling to 2.5
TCL: Running for 5000 steps
ETITLE: TS BOND ANGLE DIHED IMPRP ELECT VDW BOUNDARY MISC KINETIC TOTAL TEMP POTENTIAL TOTAL3 TEMPAVG PRESSURE GPRESSURE VOLUME PRESSAVG GPRESSAVG
ENERGY: 10000 1631.9167 2293.6192 3172.0078 0.0000 -175095.6053 19835.2977 331.7813 0.0000 30757.3070 -117073.6754 299.0442 -147830.9824 -117027.4245 299.0442 -184.6282 -126.5720 501788.0311 -184.6282 -126.5720
ENERGY: 11000 1655.8878 2304.4903 3182.8845 0.0000 -175029.3827 19795.0014 500.0525 0.0000 31076.1438 -116514.9224 302.1442 -147591.0662 -116461.6522 301.2626 -101.3054 -64.8503 502116.3579 10.2860 10.5994
ENERGY: 12000 1677.2754 2334.1387 3178.3965 0.0000 -175856.2940 20297.5792 507.4333 0.0000 30670.5835 -117190.8874 298.2010 -147861.4709 -117144.9873 299.6216 -141.8191 -2.2413 500792.6377 -1.5392 -0.8484
ENERGY: 13000 1616.7725 2398.8089 3196.5696 0.0000 -175074.4773 19793.9649 533.7244 0.0000 30809.7066 -116724.9305 299.5537 -147534.6371 -116684.6283 300.6130 -58.5491 -57.2125 500033.5799 -12.6865 -12.8888
ENERGY: 14000 1619.3734 2328.8837 3189.6369 0.0000 -174747.7811 19610.2664 524.3371 0.0000 30774.8687 -116700.4150 299.2150 -147475.2837 -116647.3904 300.4205 89.3702 49.5477 500646.9176 15.3320 15.4762
ENERGY: 15000 1620.7739 2303.2794 3160.5881 0.0000 -175491.2399 19964.9144 502.9671 0.0000 30973.3470 -116965.3700 301.1447 -147938.7171 -116912.6362 301.1201 -23.2879 14.9760 500559.0095 6.5032 5.8245
TCL: Setting parameter constraintScaling to 1.25
TCL: Running for 5000 steps
ETITLE: TS BOND ANGLE DIHED IMPRP ELECT VDW BOUNDARY MISC KINETIC TOTAL TEMP POTENTIAL TOTAL3 TEMPAVG PRESSURE GPRESSURE VOLUME PRESSAVG GPRESSAVG
ENERGY: 15000 1620.7739 2303.2794 3160.5881 0.0000 -175491.2399 19964.9144 251.4835 0.0000 30971.2892 -117218.9115 301.1247 -148190.2006 -117176.9178 301.1247 -86.2982 -41.4863 500559.0095 -86.2982 -41.4863
ENERGY: 16000 1634.0793 2299.5043 3219.6818 0.0000 -175985.6569 20287.9867 416.2747 0.0000 30971.9828 -117156.1473 301.1314 -148128.1301 -117103.8754 299.4896 64.7881 -7.9238 500375.8964 12.5155 12.5788
ENERGY: 17000 1639.6316 2343.3691 3190.6628 0.0000 -175656.1599 20118.1151 400.3656 0.0000 30690.7889 -117273.2268 298.3975 -147964.0157 -117229.4782 297.9235 -144.6981 -83.8859 501712.9218 4.4716 3.8298
ENERGY: 18000 1591.7223 2355.6364 3170.5020 0.0000 -175472.8264 19967.3413 392.3313 0.0000 30761.9758 -117233.3175 299.0896 -147995.2932 -117184.0809 299.2624 54.4752 -50.7893 501142.8786 12.1664 11.9059
ENERGY: 19000 1610.9561 2451.9794 3187.7882 0.0000 -175626.6602 20228.4877 401.6276 0.0000 31089.0664 -116656.7548 302.2698 -147745.8212 -116614.8269 301.1474 17.2240 68.0398 500462.9719 -1.6566 -2.2311
ENERGY: 20000 1627.9607 2352.5081 3178.3344 0.0000 -175746.7922 20157.0746 402.5162 0.0000 31052.8038 -116975.5944 301.9172 -148028.3983 -116928.6986 301.4553 -112.8706 -58.4209 500047.9407 -5.5248 -5.1164
TCL: Setting parameter constraintScaling to 0.625
TCL: Running for 5000 steps
ETITLE: TS BOND ANGLE DIHED IMPRP ELECT VDW BOUNDARY MISC KINETIC TOTAL TEMP POTENTIAL TOTAL3 TEMPAVG PRESSURE GPRESSURE VOLUME PRESSAVG GPRESSAVG
ENERGY: 20000 1627.9607 2352.5081 3178.3344 0.0000 -175746.7922 20157.0746 201.2581 0.0000 31050.7249 -117178.9315 301.8970 -148229.6564 -117134.5488 301.8970 -85.4321 -35.8944 500047.9407 -85.4321 -35.8944
ENERGY: 21000 1660.9050 2379.8755 3170.8713 0.0000 -175763.5591 20139.0036 306.2056 0.0000 30744.1837 -117362.5144 298.9166 -148106.6981 -117325.3641 299.8907 -96.9304 -4.6616 499879.2128 11.6954 11.7020
ENERGY: 22000 1627.0708 2368.8629 3205.3454 0.0000 -175621.9600 20148.9802 310.4400 0.0000 30816.5410 -117144.7198 299.6201 -147961.2607 -117098.6200 300.0979 20.8579 32.5374 499038.0713 -9.7825 -9.5849
ENERGY: 23000 1692.5858 2409.4638 3205.2038 0.0000 -175506.3888 19986.8078 324.2242 0.0000 30825.1607 -117062.9428 299.7039 -147888.1035 -117011.9763 300.4035 48.8228 58.6185 497941.0694 -1.6177 -1.7366
ENERGY: 24000 1647.0639 2431.2524 3211.9832 0.0000 -175794.5065 20145.4303 298.6132 0.0000 30822.2251 -117237.9385 299.6754 -148060.1636 -117191.2751 299.8489 -41.8224 30.2062 498880.8390 -2.9571 -2.7943
ENERGY: 25000 1654.8261 2344.1376 3184.3576 0.0000 -176019.7626 20415.2565 312.5220 0.0000 30776.8167 -117331.8461 299.2339 -148108.6628 -117279.2746 299.1868 -69.4531 -3.0943 498483.1723 -9.8214 -9.3999
TCL: Setting parameter constraintScaling to 0.3125
TCL: Running for 5000 steps
ETITLE: TS BOND ANGLE DIHED IMPRP ELECT VDW BOUNDARY MISC KINETIC TOTAL TEMP POTENTIAL TOTAL3 TEMPAVG PRESSURE GPRESSURE VOLUME PRESSAVG GPRESSAVG
ENERGY: 25000 1654.8261 2344.1376 3184.3576 0.0000 -176019.7626 20415.2565 156.2610 0.0000 30774.7787 -117490.1450 299.2141 -148264.9238 -117449.4558 299.2141 -59.3682 8.2255 498483.1723 -59.3682 8.2255
ENERGY: 26000 1650.3863 2360.9433 3235.4402 0.0000 -175812.1947 20035.6305 237.1582 0.0000 30748.0376 -117544.5986 298.9541 -148292.6363 -117502.4415 298.8105 -69.0423 -42.9773 498010.6464 3.4173 4.0553
ENERGY: 27000 1664.4128 2451.0576 3238.3636 0.0000 -175613.6339 20037.2358 242.8916 0.0000 30791.2072 -117188.4652 299.3738 -147979.6725 -117145.2175 300.2309 -45.3456 -44.8925 500065.8899 6.5248 6.5718
ENERGY: 28000 1652.5887 2416.3963 3196.3250 0.0000 -175724.4857 20120.8553 276.1561 0.0000 31022.9951 -117039.1693 301.6274 -148062.1644 -116988.0028 300.1165 105.6586 110.7005 499974.5426 -1.6378 -1.6690
ENERGY: 29000 1619.4962 2384.4103 3206.1822 0.0000 -175662.6631 19960.4351 242.9894 0.0000 30716.2365 -117532.9136 298.6449 -148249.1500 -117491.5928 299.3544 -32.1595 24.7982 498083.6057 2.3561 2.1249
ENERGY: 30000 1651.1718 2455.7001 3171.8941 0.0000 -176063.7999 20293.8388 255.5100 0.0000 30707.3138 -117528.3712 298.5581 -148235.6851 -117484.0918 298.7619 31.0920 50.1972 498164.5582 -3.3194 -3.3055
TCL: Setting parameter constraintScaling to 0.15625
TCL: Running for 5000 steps
ETITLE: TS BOND ANGLE DIHED IMPRP ELECT VDW BOUNDARY MISC KINETIC TOTAL TEMP POTENTIAL TOTAL3 TEMPAVG PRESSURE GPRESSURE VOLUME PRESSAVG GPRESSAVG
ENERGY: 30000 1651.1718 2455.7001 3171.8941 0.0000 -176063.7999 20293.8388 127.7550 0.0000 30705.2880 -117658.1521 298.5384 -148363.4401 -117615.2195 298.5384 37.9116 60.5722 498164.5582 37.9116 60.5722
ENERGY: 31000 1635.1106 2412.9032 3206.6626 0.0000 -175774.9140 20061.2497 184.8540 0.0000 30664.7601 -117609.3738 298.1444 -148274.1338 -117567.1612 299.1067 92.0983 119.9127 497654.5906 -4.1594 -3.8044
ENERGY: 32000 1672.6383 2325.9556 3190.6736 0.0000 -175812.1103 19871.5336 211.0238 0.0000 30946.3573 -117593.9281 300.8823 -148540.2854 -117568.8228 299.3888 -49.3073 -30.5838 495987.7163 -2.2727 -3.0237
ENERGY: 33000 1644.6430 2426.3457 3207.6524 0.0000 -175764.8757 19943.9392 187.0505 0.0000 30632.2030 -117723.0419 297.8279 -148355.2448 -117679.5406 299.5771 -81.4906 -64.8200 497293.3225 10.4310 10.3903
ENERGY: 34000 1579.0740 2426.8892 3211.8551 0.0000 -176158.8082 20130.1506 221.5027 0.0000 31089.5855 -117499.7511 302.2749 -148589.3366 -117456.1684 299.9088 23.5949 49.7475 497207.3643 -2.1908 -1.2753
ENERGY: 35000 1597.1855 2406.9382 3197.6376 0.0000 -175786.4901 19989.5197 204.3563 0.0000 30683.8471 -117707.0059 298.3300 -148390.8529 -117665.2785 299.2176 25.4437 -0.2432 496537.9429 -2.7293 -2.5221
TCL: Setting parameter constraintScaling to 0.078125
TCL: Running for 5000 steps
ETITLE: TS BOND ANGLE DIHED IMPRP ELECT VDW BOUNDARY MISC KINETIC TOTAL TEMP POTENTIAL TOTAL3 TEMPAVG PRESSURE GPRESSURE VOLUME PRESSAVG GPRESSAVG
ENERGY: 35000 1597.1855 2406.9382 3197.6376 0.0000 -175786.4901 19989.5197 102.1781 0.0000 30681.7937 -117811.2374 298.3100 -148493.0311 -117768.2286 298.3100 3.7577 -21.1630 496537.9429 3.7577 -21.1630
ENERGY: 36000 1575.7058 2452.3438 3201.2998 0.0000 -175665.7737 20087.1855 157.3999 0.0000 30764.2312 -117427.6076 299.1115 -148191.8388 -117378.2313 299.0116 14.6682 77.1280 496901.5301 9.8998 9.7643
ENERGY: 37000 1642.9657 2369.3835 3239.9457 0.0000 -175761.3924 19958.3105 153.5472 0.0000 31067.9669 -117329.2729 302.0647 -148397.2397 -117291.0770 300.1978 -169.5580 -90.2905 497265.3135 6.5233 7.2153
ENERGY: 38000 1636.3377 2403.4579 3229.8515 0.0000 -175594.6006 19971.4880 168.0720 0.0000 30770.6633 -117414.7303 299.1741 -148185.3936 -117371.1926 298.9361 7.4476 -4.0906 496459.1613 -6.5656 -6.6906
ENERGY: 39000 1627.7266 2447.8534 3235.8830 0.0000 -175774.3384 20018.5572 167.7767 0.0000 30842.5967 -117433.9449 299.8735 -148276.5415 -117394.9677 300.5781 4.9811 -15.5847 496770.1244 -7.2635 -7.8459
ENERGY: 40000 1683.3978 2374.9415 3192.7379 0.0000 -175462.1070 19848.6177 154.4507 0.0000 30965.5567 -117242.4047 301.0690 -148207.9614 -117203.4078 299.9188 -126.9353 -67.0789 495862.5600 -8.0489 -7.6438
TCL: Setting parameter constraintScaling to 0.0390625
TCL: Running for 5000 steps
ETITLE: TS BOND ANGLE DIHED IMPRP ELECT VDW BOUNDARY MISC KINETIC TOTAL TEMP POTENTIAL TOTAL3 TEMPAVG PRESSURE GPRESSURE VOLUME PRESSAVG GPRESSAVG
ENERGY: 40000 1683.3978 2374.9415 3192.7379 0.0000 -175462.1070 19848.6177 77.2253 0.0000 30963.5103 -117321.6764 301.0491 -148285.1867 -117277.0530 301.0491 -152.1493 -80.5191 495862.5600 -152.1493 -80.5191
ENERGY: 41000 1645.2398 2433.7856 3224.9383 0.0000 -175725.3515 20031.5430 103.6327 0.0000 30699.6450 -117586.5672 298.4836 -148286.2122 -117534.5557 300.4756 -219.1000 -143.4478 497268.9553 -3.6332 -2.7307
ENERGY: 42000 1593.8568 2368.3441 3208.5153 0.0000 -176106.6228 20059.9620 117.8253 0.0000 31036.8082 -117721.3111 301.7617 -148758.1193 -117669.6334 299.7363 -36.5844 39.8579 495390.0435 -11.7865 -11.6958
ENERGY: 43000 1706.8029 2435.4024 3230.3700 0.0000 -176103.8330 20024.9734 131.3467 0.0000 30716.7228 -117858.2149 298.6496 -148574.9377 -117801.4111 299.5245 -14.0128 15.6872 496486.4078 -1.1717 -1.1762
ENERGY: 44000 1649.5754 2438.9782 3202.3079 0.0000 -176048.3659 20192.0279 138.6356 0.0000 30757.0266 -117669.8144 299.0415 -148426.8410 -117629.2808 299.5060 -30.0554 31.1013 496454.7472 -0.3324 -0.3645
ENERGY: 45000 1666.0173 2408.2180 3189.7435 0.0000 -175977.4556 20173.6586 138.7456 0.0000 30893.3663 -117507.7062 300.3671 -148401.0725 -117463.6373 299.4590 126.6392 82.1403 497860.2208 8.9183 9.0821
TCL: Setting parameter constraintScaling to 0.01953125
TCL: Running for 5000 steps
ETITLE: TS BOND ANGLE DIHED IMPRP ELECT VDW BOUNDARY MISC KINETIC TOTAL TEMP POTENTIAL TOTAL3 TEMPAVG PRESSURE GPRESSURE VOLUME PRESSAVG GPRESSAVG
ENERGY: 45000 1666.0173 2408.2180 3189.7435 0.0000 -175977.4556 20173.6586 69.3728 0.0000 30891.3262 -117579.1191 300.3472 -148470.4453 -117537.2574 300.3472 108.8415 66.2350 497860.2208 108.8415 66.2350
ENERGY: 46000 1685.9443 2329.4277 3230.1446 0.0000 -176062.2061 20196.5460 92.1927 0.0000 30971.3436 -117556.6073 301.1252 -148527.9509 -117514.7668 300.7578 -1.7782 24.8740 498338.3226 5.0747 5.8087
ENERGY: 47000 1611.2958 2394.6130 3216.9655 0.0000 -175778.9626 20143.1872 79.0636 0.0000 30825.8739 -117507.9636 299.7109 -148333.8375 -117465.6034 300.1809 121.6817 60.4247 498156.5072 7.1287 6.5953
ENERGY: 48000 1651.6974 2371.4880 3177.8239 0.0000 -176098.9466 19951.4665 85.1320 0.0000 30995.0026 -117866.3363 301.3553 -148861.3389 -117823.6598 299.9839 -142.0417 -8.1658 496452.2059 -4.7315 -4.8560
ENERGY: 49000 1667.0566 2438.4616 3216.1158 0.0000 -175916.9260 20095.2772 88.4081 0.0000 30844.6496 -117566.9573 299.8934 -148411.6069 -117522.0428 299.6248 -63.7853 45.9214 497645.5047 7.2778 7.5606
ENERGY: 50000 1707.4890 2345.3325 3202.0241 0.0000 -176455.7832 20146.1120 97.7507 0.0000 30915.1507 -118041.9243 300.5789 -148957.0749 -118003.3562 299.0677 -108.6519 -56.6039 495026.4302 -7.9416 -7.6849
TCL: Setting parameter constraintScaling to 0
TCL: Running for 5000 steps
ETITLE: TS BOND ANGLE DIHED IMPRP ELECT VDW BOUNDARY MISC KINETIC TOTAL TEMP POTENTIAL TOTAL3 TEMPAVG PRESSURE GPRESSURE VOLUME PRESSAVG GPRESSAVG
ENERGY: 50000 1707.4890 2345.3325 3202.0241 0.0000 -176455.7832 20146.1120 0.0000 0.0000 30913.1289 -118141.6967 300.5592 -149054.8256 -118098.8042 300.5592 -126.2257 -73.5960 495026.4302 -126.2257 -73.5960
ENERGY: 51000 1610.7467 2457.6550 3181.1916 0.0000 -176312.8201 20282.0160 0.0000 0.0000 30594.2535 -118186.9574 297.4589 -148781.2109 -118138.8078 299.0924 11.2614 65.0186 496465.5810 4.9991 5.3625
ENERGY: 52000 1647.1041 2422.1660 3199.2471 0.0000 -176074.1017 20174.4779 0.0000 0.0000 31071.5455 -117559.5612 302.0995 -148631.1067 -117510.7467 300.1698 40.2550 89.1540 496168.4119 1.9633 1.8001
ENERGY: 53000 1678.5387 2432.9676 3188.0735 0.0000 -176005.2307 20094.7067 0.0000 0.0000 30780.1187 -117830.8255 299.2660 -148610.9442 -117782.9686 299.4149 -10.7504 -0.1908 496540.6848 12.0323 11.9003
ENERGY: 54000 1630.4083 2485.7471 3239.8489 0.0000 -176037.4666 19892.0755 0.0000 0.0000 30938.5067 -117850.8801 300.8060 -148789.3868 -117805.8674 299.5693 -143.5599 -84.0690 496112.3980 -10.2599 -10.1781
ENERGY: 55000 1606.9869 2384.2046 3200.5731 0.0000 -175696.1064 20066.7775 0.0000 0.0000 30523.7923 -117913.7721 296.7738 -148437.5644 -117865.6895 299.4776 -11.2518 21.6961 497696.2305 -0.8987 -1.0686
