Info: SIMULATION PARAMETERS:
Info: TIMESTEP               1
Info: NUMBER OF STEPS        0
Info: STEPS PER CYCLE        10
Info: PERIODIC CELL BASIS 1  72.449 0 0
Info: PERIODIC CELL BASIS 2  0 93.247 0
Info: PERIODIC CELL BASIS 3  0 0 79.185
Info: PERIODIC CELL CENTER   -0.248 -0.156 -0.047
Info: WRAPPING WATERS AROUND PERIODIC BOUNDARIES ON OUTPUT.
Info: WRAPPING ALL CLUSTERS AROUND PERIODIC BOUNDARIES ON OUTPUT.
Info: FIRST LDB TIMESTEP     50
Info: LAST LDB TIMESTEP     -1
Info: HOM BACKGROUND SCALING 1
Info: PME BACKGROUND SCALING 1
Info: MIN ATOMS PER PATCH    40
Info: VELOCITY FILE          ../replicas/rep18/equilibration/eq1.vel
Info: CENTER OF MASS MOVING INITIALLY? NO
Info: DIELECTRIC             1
Info: EXCLUDE                SCALED ONE-FOUR
Info: 1-4 ELECTROSTATICS SCALED BY 0.833333
Info: MODIFIED 1-4 VDW PARAMETERS WILL BE USED
Info: DCD FILENAME           ../replicas/rep18/equilibration/eq2.dcd
Info: DCD FREQUENCY          5000
Info: DCD FIRST STEP         5000
Info: DCD FILE WILL CONTAIN UNIT CELL DATA
Info: XST FILENAME           ../replicas/rep18/equilibration/eq2.xst
Info: XST FREQUENCY          5000
Info: NO VELOCITY DCD OUTPUT
Info: NO FORCE DCD OUTPUT
Info: OUTPUT FILENAME        ../replicas/rep18/equilibration/eq2
Info: RESTART FILENAME       ../replicas/rep18/equilibration/eq2.restart
Info: RESTART FREQUENCY      5000
Info: BINARY RESTART FILES WILL BE USED
Info: SWITCHING ACTIVE
Info: SWITCHING ON           10
Info: SWITCHING OFF          12
Info: PAIRLIST DISTANCE      13.5
Info: PAIRLIST SHRINK RATE   0.01
Info: PAIRLIST GROW RATE     0.01
Info: PAIRLIST TRIGGER       0.3
Info: PAIRLISTS PER CYCLE    2
Info: PAIRLISTS ENABLED
Info: MARGIN                 0.48
Info: HYDROGEN GROUP CUTOFF  2.5
Info: PATCH DIMENSION        16.48
Info: ENERGY OUTPUT STEPS    500
Info: CROSSTERM ENERGY INCLUDED IN DIHEDRAL
Info: TIMING OUTPUT STEPS    5000
Info: PRESSURE OUTPUT STEPS  500
Info: HARMONIC CONSTRAINTS ACTIVE
Info: HARMONIC CONS EXP      2
Info: HARMONIC CONS SCALING  10
Info: LANGEVIN DYNAMICS ACTIVE
Info: LANGEVIN TEMPERATURE   300
Info: LANGEVIN USING BBK INTEGRATOR
Info: LANGEVIN DAMPING COEFFICIENT IS 5 INVERSE PS
Info: LANGEVIN DYNAMICS NOT APPLIED TO HYDROGENS
Info: BERENDSEN PRESSURE COUPLING ACTIVE
Info:     TARGET PRESSURE IS 1 BAR
Info:     COMPRESSIBILITY ESTIMATE IS 4.57e-05 BAR^(-1)
Info:     RELAXATION TIME IS 100 FS
Info:     APPLIED EVERY 2 STEPS
Info:     PRESSURE CONTROL IS GROUP-BASED
Info:       CELL FLUCTUATION IS ISOTROPIC
Info: PARTICLE MESH EWALD (PME) ACTIVE
Info: PME TOLERANCE               1e-06
Info: PME EWALD COEFFICIENT       0.257952
Info: PME INTERPOLATION ORDER     4
Info: PME GRID DIMENSIONS         80 96 80
Info: PME MAXIMUM GRID SPACING    1
Info: FULL ELECTROSTATIC EVALUATION FREQUENCY      2
Info: USING VERLET I (r-RESPA) MTS SCHEME.
Info: C1 SPLITTING OF LONG RANGE ELECTROSTATICS
Info: PLACING ATOMS IN PATCHES BY HYDROGEN GROUPS
Info: RIGID BONDS TO HYDROGEN : WATER
Info:         ERROR TOLERANCE : 1e-05
Info:          MAX ITERATIONS : 100
Info: RIGID WATER USING SETTLE ALGORITHM
Info: RANDOM NUMBER SEED     1503716842
Info: USE HYDROGEN BONDS?    NO
Info: Using AMBER format force field!
Info: AMBER PARM FILE        ../build/complex.top
Info: COORDINATE PDB         ../replicas/rep18/equilibration/eq1.coor
Info: Exclusions in PARM file will be ignored!
Info: SCNB (VDW SCALING)     2
Info: USING ARITHMETIC MEAN TO COMBINE L-J SIGMA PARAMETERS
Info: SUMMARY OF PARAMETERS:
Info: 71 BONDS
Info: 145 ANGLES
Info: 76 DIHEDRAL
Info: 0 IMPROPER
Info: 0 CROSSTERM
Info: 0 VDW
Info: 190 VDW_PAIRS
Info: 0 NBTHOLE_PAIRS
Info: STRUCTURE SUMMARY:
Info: 49394 ATOMS
Info: 49448 BONDS
Info: 8698 ANGLES
Info: 18780 DIHEDRALS
Info: 0 IMPROPERS
Info: 0 CROSSTERMS
Info: 0 EXCLUSIONS
Info: 2336 CONSTRAINTS
Info: 44667 RIGID BONDS
Info: 103515 DEGREES OF FREEDOM
Info: 17225 HYDROGEN GROUPS
Info: 4 ATOMS IN LARGEST HYDROGEN GROUP
Info: 17225 MIGRATION GROUPS
Info: 4 ATOMS IN LARGEST MIGRATION GROUP
Info: TOTAL MASS = 301478 amu
Info: TOTAL CHARGE = 1.00115e-05 e
Info: MASS DENSITY = 0.935846 g/cm^3
Info: ATOM DENSITY = 0.0923345 atoms/A^3
Info: ADDED 70656 IMPLICIT EXCLUSIONS
Info: NONBONDED TABLE R-SQUARED SPACING: 0.0625
Info: NONBONDED TABLE SIZE: 769 POINTS
Info: REMOVING COM VELOCITY 0.00222671 0.0278558 0.00686424
TCL: Running for 5000 steps
ETITLE: TS BOND ANGLE DIHED IMPRP ELECT VDW BOUNDARY MISC KINETIC TOTAL TEMP POTENTIAL TOTAL3 TEMPAVG PRESSURE GPRESSURE VOLUME PRESSAVG GPRESSAVG
ENERGY: 0 382.7971 1203.2140 2920.2592 0.0000 -212609.6140 29361.6596 0.0000 0.0000 10059.0144 -168682.6697 97.8008 -178741.6841 -168673.0763 97.8008 -2404.9135 -2507.3045 534946.2959 -2404.9135 -2507.3045
ENERGY: 1000 1226.9965 1979.3693 3121.4416 0.0000 -193281.5248 26272.2135 804.0796 0.0000 24177.5137 -135699.9105 235.0708 -159877.4243 -135674.3645 219.5419 97.3848 5.3612 520886.2534 -15.9820 -16.4608
ENERGY: 2000 1464.1035 2195.5257 3157.8246 0.0000 -184066.0545 23272.7647 770.7929 0.0000 27963.7992 -125241.2438 271.8838 -153205.0430 -125210.6926 264.8202 -7.1373 -5.4197 514410.8117 -33.3326 -33.3632
ENERGY: 3000 1480.1147 2194.5921 3134.8867 0.0000 -179115.6572 21688.7873 816.1779 0.0000 29472.8594 -120328.2391 286.5559 -149801.0985 -120278.3540 285.0845 -40.6802 2.2907 510686.3081 -21.1669 -21.0776
ENERGY: 4000 1480.8169 2256.4569 3144.6076 0.0000 -176976.3877 20908.8667 792.7045 0.0000 30310.1003 -118082.8348 294.6962 -148392.9352 -118051.9742 293.0729 -70.5677 -13.9604 506176.6316 -25.1265 -24.4050
ENERGY: 5000 1545.0210 2242.7592 3166.9815 0.0000 -176435.0997 20690.0189 813.0698 0.0000 30798.7908 -117178.4584 299.4475 -147977.2493 -117133.2903 297.1677 -14.5915 2.5776 504906.5050 -7.7814 -7.8970
TCL: Setting parameter constraintScaling to 5.0
TCL: Running for 5000 steps
ETITLE: TS BOND ANGLE DIHED IMPRP ELECT VDW BOUNDARY MISC KINETIC TOTAL TEMP POTENTIAL TOTAL3 TEMPAVG PRESSURE GPRESSURE VOLUME PRESSAVG GPRESSAVG
ENERGY: 5000 1545.0210 2242.7592 3166.9815 0.0000 -176435.0997 20690.0189 406.5349 0.0000 30796.7598 -117587.0244 299.4278 -148383.7842 -117543.8474 299.4278 45.8348 56.6355 504906.5050 45.8348 56.6355
ENERGY: 6000 1600.5904 2339.8772 3184.7292 0.0000 -175344.3395 20011.6720 639.7644 0.0000 30545.5156 -117022.1907 296.9850 -147567.7063 -116981.7591 297.7458 -0.5815 35.0233 504093.2301 -9.6470 -9.4913
ENERGY: 7000 1612.9104 2324.9216 3173.5133 0.0000 -175441.5519 20033.3254 637.0456 0.0000 30786.9656 -116872.8701 299.3326 -147659.8356 -116831.6633 299.5041 6.8501 35.6160 502687.6968 -14.4579 -14.4454
ENERGY: 8000 1622.5258 2257.0574 3154.2215 0.0000 -175614.2381 20273.6238 627.6526 0.0000 30885.5841 -116793.5730 300.2914 -147679.1570 -116743.5261 299.9276 24.8199 -46.7048 500743.4806 -10.4283 -10.3994
ENERGY: 9000 1668.3537 2303.6430 3163.6076 0.0000 -175824.6542 20223.8044 627.6177 0.0000 30767.8442 -117069.7835 299.1467 -147837.6278 -117027.8120 298.8397 -112.2418 -28.7121 501944.0305 -7.2201 -7.2871
ENERGY: 10000 1613.4389 2304.7544 3167.0104 0.0000 -175771.6590 20302.6189 624.2775 0.0000 30788.0636 -116971.4953 299.3433 -147759.5588 -116934.6113 298.6073 62.0794 -7.5212 500909.4565 -7.5632 -8.1405
TCL: Setting parameter constraintScaling to 2.5
TCL: Running for 5000 steps
ETITLE: TS BOND ANGLE DIHED IMPRP ELECT VDW BOUNDARY MISC KINETIC TOTAL TEMP POTENTIAL TOTAL3 TEMPAVG PRESSURE GPRESSURE VOLUME PRESSAVG GPRESSAVG
ENERGY: 10000 1613.4389 2304.7544 3167.0104 0.0000 -175771.6590 20302.6189 312.1388 0.0000 30786.0150 -117285.6826 299.3233 -148071.6976 -117242.2986 299.3233 73.1767 8.3611 500909.4565 73.1767 8.3611
ENERGY: 11000 1622.2961 2321.8528 3175.0050 0.0000 -175865.3643 20239.1350 516.3153 0.0000 30786.7464 -117204.0136 299.3304 -147990.7600 -117161.3407 298.6506 -17.7638 -15.1066 500043.5445 -4.3401 -4.2282
ENERGY: 12000 1585.6627 2346.4588 3199.9122 0.0000 -175559.5883 19885.6288 527.6702 0.0000 30825.0958 -117189.1599 299.7033 -148014.2557 -117151.2662 299.2996 -23.8859 61.7666 499062.9009 -12.5414 -12.6644
ENERGY: 13000 1581.0959 2348.9442 3206.9984 0.0000 -175516.2631 20187.3020 502.9499 0.0000 30892.6524 -116796.3203 300.3601 -147688.9727 -116750.7402 300.1517 96.4926 40.1529 499520.9415 4.9820 5.0596
ENERGY: 14000 1628.5291 2341.0536 3159.3159 0.0000 -175923.0249 20080.5662 519.0300 0.0000 30894.4280 -117300.1022 300.3774 -148194.5302 -117244.3511 299.5739 -109.4889 -82.0094 499686.7075 7.5897 7.3393
ENERGY: 15000 1631.3020 2313.9692 3197.1712 0.0000 -175686.3310 20062.1314 511.1788 0.0000 30585.8155 -117384.7630 297.3769 -147970.5784 -117338.9773 298.7518 27.5707 40.4345 499630.2329 -1.6420 -1.4761
TCL: Setting parameter constraintScaling to 1.25
TCL: Running for 5000 steps
ETITLE: TS BOND ANGLE DIHED IMPRP ELECT VDW BOUNDARY MISC KINETIC TOTAL TEMP POTENTIAL TOTAL3 TEMPAVG PRESSURE GPRESSURE VOLUME PRESSAVG GPRESSAVG
ENERGY: 15000 1631.3020 2313.9692 3197.1712 0.0000 -175686.3310 20062.1314 255.5894 0.0000 30583.7689 -117642.3989 297.3570 -148226.1678 -117603.7137 297.3570 -60.7124 -42.1503 499630.2329 -60.7124 -42.1503
ENERGY: 16000 1583.1513 2406.5172 3194.6460 0.0000 -175808.1747 20299.9793 407.0887 0.0000 30582.0248 -117334.7674 297.3400 -147916.7922 -117289.8554 298.6840 -46.8826 41.6952 498469.6983 -6.0401 -5.6607
ENERGY: 17000 1656.5115 2308.4528 3187.5929 0.0000 -175704.1361 19916.2052 394.2396 0.0000 31104.0944 -117137.0397 302.4159 -148241.1341 -117102.0192 299.8569 -10.3539 -15.4589 499501.6264 2.9289 3.1944
ENERGY: 18000 1580.9641 2406.7114 3181.3280 0.0000 -175418.1098 19948.6117 390.2643 0.0000 30838.0478 -117072.1824 299.8292 -147910.2303 -117023.0377 299.3496 97.3446 90.4222 499887.5714 5.9254 5.9548
ENERGY: 19000 1591.7954 2298.4733 3193.2943 0.0000 -175400.0083 19783.9764 377.0464 0.0000 30998.8882 -117156.5343 301.3930 -148155.4225 -117106.2361 300.2864 -136.7455 -55.0821 500040.4035 -0.2648 -0.4215
ENERGY: 20000 1612.8887 2384.4662 3189.8614 0.0000 -175782.2204 19846.7489 390.1291 0.0000 30981.8887 -117376.2374 301.2278 -148358.1261 -117332.6246 299.4957 -22.1190 -21.0076 499290.1563 4.6450 4.3195
TCL: Setting parameter constraintScaling to 0.625
TCL: Running for 5000 steps
ETITLE: TS BOND ANGLE DIHED IMPRP ELECT VDW BOUNDARY MISC KINETIC TOTAL TEMP POTENTIAL TOTAL3 TEMPAVG PRESSURE GPRESSURE VOLUME PRESSAVG GPRESSAVG
ENERGY: 20000 1612.8887 2384.4662 3189.8614 0.0000 -175782.2204 19846.7489 195.0645 0.0000 30979.8495 -117573.3411 301.2079 -148553.1906 -117528.5107 301.2079 -103.6889 -110.3791 499290.1563 -103.6889 -110.3791
ENERGY: 21000 1623.3895 2372.0516 3185.9203 0.0000 -175581.0752 19905.9242 324.7448 0.0000 30720.9770 -117448.0677 298.6910 -148169.0447 -117398.2977 299.0865 -61.9014 -9.4561 498891.3957 3.6946 4.3016
ENERGY: 22000 1598.2395 2347.9592 3227.5304 0.0000 -175648.2498 20029.0574 314.9764 0.0000 30756.6281 -117373.8589 299.0376 -148130.4870 -117335.2657 299.3507 23.8301 20.6478 497865.6716 -7.1205 -6.8967
ENERGY: 23000 1619.1033 2363.9229 3197.8828 0.0000 -175830.4047 20051.0258 298.0788 0.0000 31018.5654 -117281.8257 301.5844 -148300.3911 -117238.3610 300.6978 -58.5915 -19.7846 497909.3378 -7.7381 -7.8482
ENERGY: 24000 1597.2013 2370.9409 3201.8006 0.0000 -175604.5720 19933.9680 331.7759 0.0000 31277.8254 -116891.0599 304.1051 -148168.8853 -116834.3272 300.8708 -88.6034 -6.8233 497991.8562 4.4855 4.8110
ENERGY: 25000 1655.7333 2426.1276 3240.6802 0.0000 -175673.8601 19866.3794 315.1349 0.0000 30767.0586 -117402.7462 299.1390 -148169.8048 -117358.4674 300.6465 82.1420 25.9154 497352.6692 6.4955 5.9307
TCL: Setting parameter constraintScaling to 0.3125
TCL: Running for 5000 steps
ETITLE: TS BOND ANGLE DIHED IMPRP ELECT VDW BOUNDARY MISC KINETIC TOTAL TEMP POTENTIAL TOTAL3 TEMPAVG PRESSURE GPRESSURE VOLUME PRESSAVG GPRESSAVG
ENERGY: 25000 1655.7333 2426.1276 3240.6802 0.0000 -175673.8601 19866.3794 157.5674 0.0000 30765.0038 -117562.3684 299.1190 -148327.3722 -117518.5866 299.1190 45.9492 -11.5218 497352.6692 45.9492 -11.5218
ENERGY: 26000 1600.6710 2433.1428 3211.2826 0.0000 -175808.3939 20130.4471 232.5773 0.0000 30935.3255 -117264.9476 300.7750 -148200.2731 -117206.7025 300.2905 36.7498 -14.6794 497286.5849 7.3246 7.4083
ENERGY: 27000 1660.7244 2374.9426 3204.5223 0.0000 -176166.5747 20270.6131 242.4682 0.0000 30648.9329 -117764.3713 297.9905 -148413.3041 -117723.1885 298.3659 -21.3817 -12.5212 497534.2204 -1.8370 -1.5110
ENERGY: 28000 1647.7102 2382.3221 3197.2810 0.0000 -175839.4484 19895.2449 232.1806 0.0000 30926.3333 -117558.3763 300.6876 -148484.7096 -117514.2643 299.2799 46.2356 -23.8505 496330.7500 -4.9225 -5.4336
ENERGY: 29000 1628.9862 2392.0051 3245.8318 0.0000 -176460.6695 20284.3314 253.5990 0.0000 30594.9660 -118060.9499 297.4658 -148655.9159 -118019.3074 298.2115 -50.4425 -42.3517 497866.2328 2.0221 1.5605
ENERGY: 30000 1592.9651 2476.7758 3218.3319 0.0000 -176156.2185 20060.6847 248.8689 0.0000 30562.3538 -117996.2384 297.1487 -148558.5922 -117957.4592 298.8796 -5.9834 -55.4454 496555.6028 -4.2891 -3.9790
TCL: Setting parameter constraintScaling to 0.15625
TCL: Running for 5000 steps
ETITLE: TS BOND ANGLE DIHED IMPRP ELECT VDW BOUNDARY MISC KINETIC TOTAL TEMP POTENTIAL TOTAL3 TEMPAVG PRESSURE GPRESSURE VOLUME PRESSAVG GPRESSAVG
ENERGY: 30000 1592.9651 2476.7758 3218.3319 0.0000 -176156.2185 20060.6847 124.4345 0.0000 30560.3140 -118122.7127 297.1289 -148683.0267 -118079.1804 297.1289 -37.9072 -89.7442 496555.6028 -37.9072 -89.7442
ENERGY: 31000 1604.8559 2376.5309 3217.3282 0.0000 -175709.6928 20100.1575 192.2538 0.0000 30661.8261 -117556.7404 298.1159 -148218.5665 -117507.4914 298.9773 -82.3690 -10.9020 498029.6767 20.2926 20.2275
ENERGY: 32000 1606.4963 2404.5726 3212.1796 0.0000 -175774.4354 20075.9494 191.6370 0.0000 30733.5286 -117550.0719 298.8130 -148283.6004 -117514.6072 298.5518 88.8008 60.9039 499068.4570 3.8159 3.7261
ENERGY: 33000 1596.8176 2377.7694 3228.3711 0.0000 -175963.2203 20069.8083 197.6614 0.0000 30855.4952 -117637.2974 299.9989 -148492.7927 -117588.6979 299.4270 -50.6245 -24.9193 496970.4964 -9.0679 -9.1286
ENERGY: 34000 1616.4479 2421.0005 3223.9137 0.0000 -176247.9952 20190.6419 211.9059 0.0000 30658.9847 -117925.1007 298.0883 -148584.0855 -117887.1958 298.4428 -80.7451 -20.5899 496289.5958 -2.6201 -2.7184
ENERGY: 35000 1640.3509 2420.4481 3223.2129 0.0000 -176171.0338 20134.8884 220.6474 0.0000 30687.6251 -117843.8611 298.3667 -148531.4862 -117796.1337 298.3742 -82.0185 11.2705 497273.8724 7.2444 7.2346
TCL: Setting parameter constraintScaling to 0.078125
TCL: Running for 5000 steps
ETITLE: TS BOND ANGLE DIHED IMPRP ELECT VDW BOUNDARY MISC KINETIC TOTAL TEMP POTENTIAL TOTAL3 TEMPAVG PRESSURE GPRESSURE VOLUME PRESSAVG GPRESSAVG
ENERGY: 35000 1640.3509 2420.4481 3223.2129 0.0000 -176171.0338 20134.8884 110.3237 0.0000 30685.5782 -117956.2317 298.3468 -148641.8099 -117914.6091 298.3468 -111.1911 -10.5515 497273.8724 -111.1911 -10.5515
ENERGY: 36000 1633.5509 2396.3214 3199.5778 0.0000 -176218.0611 20259.8623 155.3880 0.0000 30482.9170 -118090.4438 296.3764 -148573.3608 -118048.0802 298.9817 46.1282 65.4691 496576.6160 -2.4547 -2.2089
ENERGY: 37000 1663.9606 2288.6979 3206.6014 0.0000 -176069.5022 20215.2529 158.6741 0.0000 30556.1274 -117980.1879 297.0882 -148536.3153 -117932.6086 298.4320 -52.2771 11.2118 497797.9553 10.2097 10.0996
ENERGY: 38000 1646.9094 2379.0671 3201.8866 0.0000 -175551.4567 19803.1051 169.5203 0.0000 30584.1872 -117766.7810 297.3610 -148350.9682 -117710.6067 298.6305 71.5326 26.2655 498066.6680 3.7806 3.6859
ENERGY: 39000 1639.4464 2338.6255 3230.5375 0.0000 -175840.9560 20007.6898 174.6769 0.0000 30867.7149 -117582.2651 300.1177 -148449.9799 -117531.1429 299.6790 -8.9792 -65.2539 497261.4689 -4.7614 -4.3405
ENERGY: 40000 1692.3811 2443.8710 3176.9338 0.0000 -176037.1289 20095.9968 170.5957 0.0000 31043.0341 -117414.3165 301.8223 -148457.3506 -117369.7499 300.4658 31.7252 33.9295 497180.3125 -9.0802 -9.0106
TCL: Setting parameter constraintScaling to 0.0390625
TCL: Running for 5000 steps
ETITLE: TS BOND ANGLE DIHED IMPRP ELECT VDW BOUNDARY MISC KINETIC TOTAL TEMP POTENTIAL TOTAL3 TEMPAVG PRESSURE GPRESSURE VOLUME PRESSAVG GPRESSAVG
ENERGY: 40000 1692.3811 2443.8710 3176.9338 0.0000 -176037.1289 20095.9968 85.2978 0.0000 31041.0180 -117501.6305 301.8027 -148542.6484 -117458.4384 301.8027 11.6928 22.6185 497180.3125 11.6928 22.6185
ENERGY: 41000 1625.7477 2406.1259 3225.3167 0.0000 -175724.1824 19839.5308 105.6166 0.0000 30777.2975 -117744.5472 299.2386 -148521.8447 -117703.8101 299.6175 108.3068 93.4522 497000.6451 0.3875 0.6773
ENERGY: 42000 1642.3779 2428.6302 3228.4776 0.0000 -176402.2075 20280.6088 120.0543 0.0000 30885.5936 -117816.4651 300.2915 -148702.0587 -117777.0497 299.3041 43.5019 -19.9847 497424.0470 0.7750 0.6762
ENERGY: 43000 1619.3689 2450.3181 3216.6790 0.0000 -175892.8183 20153.0727 120.9718 0.0000 30860.7024 -117471.7053 300.0495 -148332.4077 -117424.5552 299.3856 54.5394 29.7662 497149.3348 -2.4870 -2.6956
ENERGY: 44000 1657.4644 2420.0886 3242.6643 0.0000 -176135.3490 20050.0255 123.7933 0.0000 30953.3931 -117687.9199 300.9507 -148641.3130 -117652.1910 300.1523 25.4979 54.0508 496773.6495 1.4061 0.9281
ENERGY: 45000 1655.3689 2401.9570 3234.9003 0.0000 -176007.2043 20243.3908 118.7102 0.0000 30952.9931 -117399.8840 300.9468 -148352.8771 -117358.1147 300.2675 106.8978 139.5854 496772.2270 1.5374 1.0201
TCL: Setting parameter constraintScaling to 0.01953125
TCL: Running for 5000 steps
ETITLE: TS BOND ANGLE DIHED IMPRP ELECT VDW BOUNDARY MISC KINETIC TOTAL TEMP POTENTIAL TOTAL3 TEMPAVG PRESSURE GPRESSURE VOLUME PRESSAVG GPRESSAVG
ENERGY: 45000 1655.3689 2401.9570 3234.9003 0.0000 -176007.2043 20243.3908 59.3551 0.0000 30950.9201 -117461.3121 300.9267 -148412.2322 -117419.5131 300.9267 97.2908 129.2026 496772.2270 97.2908 129.2026
ENERGY: 46000 1638.4587 2370.0789 3207.3388 0.0000 -175569.2631 20010.6772 82.1051 0.0000 30936.0314 -117324.5730 300.7819 -148260.6043 -117280.1549 300.6067 -49.7700 -15.6215 497215.1916 6.6697 6.5424
ENERGY: 47000 1656.4105 2480.0080 3211.9351 0.0000 -175856.0487 20063.4383 87.3318 0.0000 31194.4183 -117162.5066 303.2941 -148356.9249 -117112.8198 301.2443 90.2494 122.9071 496525.9464 -13.0671 -13.0056
ENERGY: 48000 1699.5712 2440.6505 3246.2494 0.0000 -176230.2898 20230.9094 84.8224 0.0000 30898.2333 -117629.8535 300.4144 -148528.0869 -117578.6392 301.2494 111.0911 16.6797 497008.0957 -10.9688 -10.3687
ENERGY: 49000 1632.0720 2385.2083 3178.1730 0.0000 -176278.9616 20121.1700 90.5658 0.0000 30781.9463 -118089.8261 299.2838 -148871.7724 -118044.0654 299.4506 -69.6759 23.2628 495523.7517 -6.3176 -6.5411
ENERGY: 50000 1684.3741 2409.7291 3156.1574 0.0000 -176138.8995 20249.0835 90.2114 0.0000 30765.2815 -117784.0625 299.1217 -148549.3440 -117735.7487 299.9456 91.8225 47.1470 496241.7237 1.6144 1.6192
TCL: Setting parameter constraintScaling to 0
TCL: Running for 5000 steps
ETITLE: TS BOND ANGLE DIHED IMPRP ELECT VDW BOUNDARY MISC KINETIC TOTAL TEMP POTENTIAL TOTAL3 TEMPAVG PRESSURE GPRESSURE VOLUME PRESSAVG GPRESSAVG
ENERGY: 50000 1684.3741 2409.7291 3156.1574 0.0000 -176138.8995 20249.0835 0.0000 0.0000 30763.2176 -117876.3378 299.1017 -148639.5554 -117835.7808 299.1017 84.4706 39.5104 496241.7237 84.4706 39.5104
ENERGY: 51000 1678.4119 2434.8736 3212.2803 0.0000 -176014.2862 20020.3747 0.0000 0.0000 30830.2935 -117838.0522 299.7538 -148668.3457 -117796.2564 299.0270 69.7726 57.9510 496165.6155 9.6198 9.4449
ENERGY: 52000 1666.7199 2365.9291 3209.9826 0.0000 -176338.8907 20168.6460 0.0000 0.0000 30758.5855 -118169.0276 299.0566 -148927.6131 -118125.4151 299.1737 -4.6057 49.4458 495637.2695 -3.1865 -3.3396
ENERGY: 53000 1630.4384 2349.7414 3212.7550 0.0000 -176024.2000 19858.5947 0.0000 0.0000 30726.9865 -118245.6841 298.7494 -148972.6706 -118195.5309 298.6049 -78.1593 -92.9714 496247.4338 11.6463 11.1961
ENERGY: 54000 1680.4964 2413.7640 3205.2791 0.0000 -175985.4013 19893.6631 0.0000 0.0000 30679.3978 -118112.8008 298.2867 -148792.1986 -118081.0308 298.9258 0.7135 43.0560 495505.7322 2.4476 2.2404
ENERGY: 55000 1663.0694 2395.3651 3214.3409 0.0000 -176341.3011 20192.5816 0.0000 0.0000 30902.3904 -117973.5538 300.4548 -148875.9442 -117930.9443 300.2418 -5.9591 56.8418 496079.3572 -4.0211 -4.2139
