Info: SIMULATION PARAMETERS:
Info: TIMESTEP               1
Info: NUMBER OF STEPS        0
Info: STEPS PER CYCLE        10
Info: PERIODIC CELL BASIS 1  72.449 0 0
Info: PERIODIC CELL BASIS 2  0 93.247 0
Info: PERIODIC CELL BASIS 3  0 0 79.185
Info: PERIODIC CELL CENTER   -0.248 -0.156 -0.047
Info: WRAPPING WATERS AROUND PERIODIC BOUNDARIES ON OUTPUT.
Info: WRAPPING ALL CLUSTERS AROUND PERIODIC BOUNDARIES ON OUTPUT.
Info: FIRST LDB TIMESTEP     50
Info: LAST LDB TIMESTEP     -1
Info: HOM BACKGROUND SCALING 1
Info: PME BACKGROUND SCALING 1
Info: MIN ATOMS PER PATCH    40
Info: VELOCITY FILE          ../replicas/rep30/equilibration/eq1.vel
Info: CENTER OF MASS MOVING INITIALLY? NO
Info: DIELECTRIC             1
Info: EXCLUDE                SCALED ONE-FOUR
Info: 1-4 ELECTROSTATICS SCALED BY 0.833333
Info: MODIFIED 1-4 VDW PARAMETERS WILL BE USED
Info: DCD FILENAME           ../replicas/rep30/equilibration/eq2.dcd
Info: DCD FREQUENCY          5000
Info: DCD FIRST STEP         5000
Info: DCD FILE WILL CONTAIN UNIT CELL DATA
Info: XST FILENAME           ../replicas/rep30/equilibration/eq2.xst
Info: XST FREQUENCY          5000
Info: NO VELOCITY DCD OUTPUT
Info: NO FORCE DCD OUTPUT
Info: OUTPUT FILENAME        ../replicas/rep30/equilibration/eq2
Info: RESTART FILENAME       ../replicas/rep30/equilibration/eq2.restart
Info: RESTART FREQUENCY      5000
Info: BINARY RESTART FILES WILL BE USED
Info: SWITCHING ACTIVE
Info: SWITCHING ON           10
Info: SWITCHING OFF          12
Info: PAIRLIST DISTANCE      13.5
Info: PAIRLIST SHRINK RATE   0.01
Info: PAIRLIST GROW RATE     0.01
Info: PAIRLIST TRIGGER       0.3
Info: PAIRLISTS PER CYCLE    2
Info: PAIRLISTS ENABLED
Info: MARGIN                 0.48
Info: HYDROGEN GROUP CUTOFF  2.5
Info: PATCH DIMENSION        16.48
Info: ENERGY OUTPUT STEPS    500
Info: CROSSTERM ENERGY INCLUDED IN DIHEDRAL
Info: TIMING OUTPUT STEPS    5000
Info: PRESSURE OUTPUT STEPS  500
Info: HARMONIC CONSTRAINTS ACTIVE
Info: HARMONIC CONS EXP      2
Info: HARMONIC CONS SCALING  10
Info: LANGEVIN DYNAMICS ACTIVE
Info: LANGEVIN TEMPERATURE   300
Info: LANGEVIN USING BBK INTEGRATOR
Info: LANGEVIN DAMPING COEFFICIENT IS 5 INVERSE PS
Info: LANGEVIN DYNAMICS NOT APPLIED TO HYDROGENS
Info: BERENDSEN PRESSURE COUPLING ACTIVE
Info:     TARGET PRESSURE IS 1 BAR
Info:     COMPRESSIBILITY ESTIMATE IS 4.57e-05 BAR^(-1)
Info:     RELAXATION TIME IS 100 FS
Info:     APPLIED EVERY 2 STEPS
Info:     PRESSURE CONTROL IS GROUP-BASED
Info:       CELL FLUCTUATION IS ISOTROPIC
Info: PARTICLE MESH EWALD (PME) ACTIVE
Info: PME TOLERANCE               1e-06
Info: PME EWALD COEFFICIENT       0.257952
Info: PME INTERPOLATION ORDER     4
Info: PME GRID DIMENSIONS         80 96 80
Info: PME MAXIMUM GRID SPACING    1
Info: FULL ELECTROSTATIC EVALUATION FREQUENCY      2
Info: USING VERLET I (r-RESPA) MTS SCHEME.
Info: C1 SPLITTING OF LONG RANGE ELECTROSTATICS
Info: PLACING ATOMS IN PATCHES BY HYDROGEN GROUPS
Info: RIGID BONDS TO HYDROGEN : WATER
Info:         ERROR TOLERANCE : 1e-05
Info:          MAX ITERATIONS : 100
Info: RIGID WATER USING SETTLE ALGORITHM
Info: RANDOM NUMBER SEED     1503718649
Info: USE HYDROGEN BONDS?    NO
Info: Using AMBER format force field!
Info: AMBER PARM FILE        ../build/complex.top
Info: COORDINATE PDB         ../replicas/rep30/equilibration/eq1.coor
Info: Exclusions in PARM file will be ignored!
Info: SCNB (VDW SCALING)     2
Info: USING ARITHMETIC MEAN TO COMBINE L-J SIGMA PARAMETERS
Info: SUMMARY OF PARAMETERS:
Info: 71 BONDS
Info: 145 ANGLES
Info: 76 DIHEDRAL
Info: 0 IMPROPER
Info: 0 CROSSTERM
Info: 0 VDW
Info: 190 VDW_PAIRS
Info: 0 NBTHOLE_PAIRS
Info: STRUCTURE SUMMARY:
Info: 49394 ATOMS
Info: 49448 BONDS
Info: 8698 ANGLES
Info: 18780 DIHEDRALS
Info: 0 IMPROPERS
Info: 0 CROSSTERMS
Info: 0 EXCLUSIONS
Info: 2336 CONSTRAINTS
Info: 44667 RIGID BONDS
Info: 103515 DEGREES OF FREEDOM
Info: 17225 HYDROGEN GROUPS
Info: 4 ATOMS IN LARGEST HYDROGEN GROUP
Info: 17225 MIGRATION GROUPS
Info: 4 ATOMS IN LARGEST MIGRATION GROUP
Info: TOTAL MASS = 301478 amu
Info: TOTAL CHARGE = 1.00115e-05 e
Info: MASS DENSITY = 0.935846 g/cm^3
Info: ATOM DENSITY = 0.0923345 atoms/A^3
Info: ADDED 70656 IMPLICIT EXCLUSIONS
Info: NONBONDED TABLE R-SQUARED SPACING: 0.0625
Info: NONBONDED TABLE SIZE: 769 POINTS
Info: REMOVING COM VELOCITY -0.0224736 -0.0214625 -0.0185329
TCL: Running for 5000 steps
ETITLE: TS BOND ANGLE DIHED IMPRP ELECT VDW BOUNDARY MISC KINETIC TOTAL TEMP POTENTIAL TOTAL3 TEMPAVG PRESSURE GPRESSURE VOLUME PRESSAVG GPRESSAVG
ENERGY: 0 384.6376 1233.6728 2926.5005 0.0000 -212707.0086 29519.7162 0.0000 0.0000 10050.1228 -168592.3587 97.7144 -178642.4815 -168582.7535 97.7144 -2417.3422 -2515.1051 534946.2959 -2417.3422 -2515.1051
ENERGY: 1000 1282.0360 2005.5135 3106.8660 0.0000 -193599.8237 26449.2682 819.9024 0.0000 24260.9571 -135675.2806 235.8821 -159936.2377 -135648.5483 218.5039 -31.4272 -25.3718 522912.0998 -15.6513 -16.1146
ENERGY: 2000 1469.7572 2175.1757 3153.6562 0.0000 -184077.2104 23188.7598 765.2278 0.0000 27823.4599 -125501.1737 270.5193 -153324.6336 -125459.5093 264.9887 -16.3158 -33.7914 517123.7594 -19.3474 -18.9095
ENERGY: 3000 1526.7531 2262.4486 3151.9870 0.0000 -178962.5196 21691.9488 800.9523 0.0000 29624.5103 -119903.9195 288.0304 -149528.4298 -119865.5659 284.8267 -13.2023 -14.1880 511902.0652 -12.7876 -13.4436
ENERGY: 4000 1593.0440 2181.5449 3114.5528 0.0000 -176161.3945 20377.1732 787.7773 0.0000 30584.6544 -117522.6478 297.3656 -148107.3023 -117484.6896 293.7197 -81.0519 10.2984 508231.7199 -19.5637 -19.5109
ENERGY: 5000 1524.1795 2236.8647 3151.9485 0.0000 -175864.8993 20462.7248 829.4660 0.0000 30750.8885 -116908.8273 298.9818 -147659.7158 -116868.6590 298.4254 -160.2949 5.3523 507095.9278 3.6357 3.6771
TCL: Setting parameter constraintScaling to 5.0
TCL: Running for 5000 steps
ETITLE: TS BOND ANGLE DIHED IMPRP ELECT VDW BOUNDARY MISC KINETIC TOTAL TEMP POTENTIAL TOTAL3 TEMPAVG PRESSURE GPRESSURE VOLUME PRESSAVG GPRESSAVG
ENERGY: 5000 1524.1795 2236.8647 3151.9485 0.0000 -175864.8993 20462.7248 414.7330 0.0000 30748.8149 -117325.6340 298.9616 -148074.4488 -117279.6477 298.9616 -205.1489 -47.7395 507095.9278 -205.1489 -47.7395
ENERGY: 6000 1576.7679 2260.1499 3211.5333 0.0000 -175864.5773 20306.8851 650.9206 0.0000 30694.3048 -117164.0156 298.4317 -147858.3204 -117124.6427 298.6888 -0.3380 -7.8356 505606.4052 -7.7998 -7.8006
ENERGY: 7000 1602.9552 2302.1192 3155.9164 0.0000 -174986.7943 19892.9851 632.4490 0.0000 30662.3830 -116737.9866 298.1213 -147400.3695 -116680.8221 299.0703 -1.8578 -33.3143 503690.9401 -8.0482 -8.0275
ENERGY: 8000 1649.5418 2281.6026 3176.4343 0.0000 -175420.2677 20302.4016 648.4535 0.0000 30788.0671 -116573.7669 299.3433 -147361.8340 -116527.7376 299.2624 -39.4637 -43.8216 501744.6707 -5.7058 -5.4579
ENERGY: 9000 1641.6647 2355.8310 3157.9930 0.0000 -175461.6561 20188.7944 647.3409 0.0000 30996.3940 -116473.6383 301.3688 -147470.0322 -116427.1008 301.0856 -4.1408 -20.7115 502087.7025 10.4593 10.9665
ENERGY: 10000 1572.8654 2369.1304 3146.6548 0.0000 -175531.8915 20170.2678 615.2484 0.0000 30871.2153 -116786.5094 300.1517 -147657.7246 -116739.1363 300.6258 -0.8229 7.5097 502859.3418 5.9096 5.6185
TCL: Setting parameter constraintScaling to 2.5
TCL: Running for 5000 steps
ETITLE: TS BOND ANGLE DIHED IMPRP ELECT VDW BOUNDARY MISC KINETIC TOTAL TEMP POTENTIAL TOTAL3 TEMPAVG PRESSURE GPRESSURE VOLUME PRESSAVG GPRESSAVG
ENERGY: 10000 1572.8654 2369.1304 3146.6548 0.0000 -175531.8915 20170.2678 307.6242 0.0000 30869.1702 -117096.1787 300.1318 -147965.3488 -117052.1635 300.1318 -17.7850 -12.6978 502859.3418 -17.7850 -12.6978
ENERGY: 11000 1635.5214 2352.3173 3233.7900 0.0000 -175485.7703 20150.2036 505.2026 0.0000 30966.7949 -116641.9405 301.0810 -147608.7353 -116594.8526 300.2409 -30.3174 -1.7219 502831.2259 -2.2610 -1.8686
ENERGY: 12000 1642.9071 2357.1303 3176.5977 0.0000 -175251.0500 20154.0720 503.9979 0.0000 30983.9857 -116432.3593 301.2481 -147416.3450 -116388.8360 301.0502 -93.1595 -9.4753 502316.5803 5.3104 5.5166
ENERGY: 13000 1625.7754 2393.2545 3204.1510 0.0000 -175177.2925 19876.0591 531.8210 0.0000 31057.8492 -116488.3823 301.9663 -147546.2315 -116440.2569 300.4668 -103.1076 -69.7670 500403.3308 -0.0849 0.2146
ENERGY: 14000 1625.1213 2301.6223 3149.6929 0.0000 -175321.4378 20206.4944 532.7500 0.0000 30927.0965 -116578.6604 300.6950 -147505.7569 -116528.2368 300.9276 85.6728 54.5972 500101.2897 -0.0956 0.2172
ENERGY: 15000 1582.2265 2367.5843 3184.5414 0.0000 -175190.0547 19787.9664 511.9998 0.0000 31010.5954 -116745.1409 301.5069 -147755.7363 -116712.9658 301.0429 49.6809 55.6790 500648.2732 -8.4809 -8.1385
TCL: Setting parameter constraintScaling to 1.25
TCL: Running for 5000 steps
ETITLE: TS BOND ANGLE DIHED IMPRP ELECT VDW BOUNDARY MISC KINETIC TOTAL TEMP POTENTIAL TOTAL3 TEMPAVG PRESSURE GPRESSURE VOLUME PRESSAVG GPRESSAVG
ENERGY: 15000 1582.2265 2367.5843 3184.5414 0.0000 -175190.0547 19787.9664 255.9999 0.0000 31008.5619 -117003.1743 301.4871 -148011.7362 -116957.8115 301.4871 -23.2938 -5.3204 500648.2732 -23.2938 -5.3204
ENERGY: 16000 1638.6239 2421.0468 3198.1431 0.0000 -175382.1997 19964.2224 406.2407 0.0000 30965.0970 -116788.8258 301.0645 -147753.9227 -116742.6673 300.5447 36.9313 -12.4252 499884.8196 -0.1700 -0.3940
ENERGY: 17000 1596.6097 2373.9426 3179.4258 0.0000 -175664.0132 20005.9252 405.5824 0.0000 30993.5011 -117109.0263 301.3407 -148102.5275 -117054.1932 299.3634 76.7718 33.9895 501102.4392 12.5492 12.5224
ENERGY: 18000 1611.5423 2361.9706 3182.9795 0.0000 -175602.9415 20069.8879 404.0401 0.0000 30803.2196 -117169.3015 299.4906 -147972.5212 -117128.5850 299.4149 -3.1623 51.2542 499792.8376 -5.1197 -4.5282
ENERGY: 19000 1597.6459 2370.4503 3191.0385 0.0000 -175556.4262 19955.9854 394.6933 0.0000 31039.6223 -117006.9904 301.7891 -148046.6127 -116965.7189 299.5814 -73.1465 -6.5601 501096.5319 7.1618 7.7899
ENERGY: 20000 1620.1456 2429.4876 3189.3123 0.0000 -175438.2257 19996.4759 424.5945 0.0000 30811.9457 -116966.2640 299.5755 -147778.2097 -116916.2708 300.3201 -80.8657 22.2780 500697.4956 -8.5281 -8.6713
TCL: Setting parameter constraintScaling to 0.625
TCL: Running for 5000 steps
ETITLE: TS BOND ANGLE DIHED IMPRP ELECT VDW BOUNDARY MISC KINETIC TOTAL TEMP POTENTIAL TOTAL3 TEMPAVG PRESSURE GPRESSURE VOLUME PRESSAVG GPRESSAVG
ENERGY: 20000 1620.1456 2429.4876 3189.3123 0.0000 -175438.2257 19996.4759 212.2973 0.0000 30809.9047 -117180.6022 299.5556 -147990.5069 -117138.3891 299.5556 -98.7364 -1.9822 500697.4956 -98.7364 -1.9822
ENERGY: 21000 1643.7108 2374.9245 3203.7358 0.0000 -175808.2585 20284.6169 317.5126 0.0000 30662.3519 -117321.4061 298.1210 -147983.7580 -117275.2169 300.3743 18.4861 62.3594 499701.0724 3.7686 3.6001
ENERGY: 22000 1607.5263 2427.7760 3207.2753 0.0000 -175731.3047 20192.7315 307.6022 0.0000 30868.6698 -117119.7236 300.1270 -147988.3934 -117062.6463 299.2529 -101.5522 -16.3265 499733.5261 -0.5844 -0.6257
ENERGY: 23000 1643.0485 2379.1333 3185.1340 0.0000 -175602.1557 20175.9085 322.1364 0.0000 30840.7527 -117056.0423 299.8555 -147896.7950 -117022.4671 300.5489 -27.4113 62.6502 500309.8313 -5.8845 -5.4429
ENERGY: 24000 1659.8323 2406.2834 3208.1335 0.0000 -175765.7227 20248.9018 323.7094 0.0000 30766.6218 -117152.2405 299.1348 -147918.8623 -117105.1871 299.7003 69.9983 116.3661 500064.6103 4.2593 4.4041
ENERGY: 25000 1608.4177 2360.3213 3224.9363 0.0000 -175534.3639 19905.8129 321.5787 0.0000 30769.3064 -117343.9906 299.1609 -148113.2970 -117296.9589 299.9649 19.2399 39.9412 498410.0097 -10.5490 -10.2309
TCL: Setting parameter constraintScaling to 0.3125
TCL: Running for 5000 steps
ETITLE: TS BOND ANGLE DIHED IMPRP ELECT VDW BOUNDARY MISC KINETIC TOTAL TEMP POTENTIAL TOTAL3 TEMPAVG PRESSURE GPRESSURE VOLUME PRESSAVG GPRESSAVG
ENERGY: 25000 1608.4177 2360.3213 3224.9363 0.0000 -175534.3639 19905.8129 160.7893 0.0000 30767.2523 -117506.8340 299.1409 -148274.0864 -117463.6109 299.1409 -55.8748 -34.5295 498410.0097 -55.8748 -34.5295
ENERGY: 26000 1669.5359 2431.1221 3222.4673 0.0000 -175892.9459 20120.2585 250.2721 0.0000 30952.0341 -117247.2558 300.9375 -148199.2900 -117199.3102 300.4604 -1.1296 -45.2552 497090.7212 -8.7672 -8.7437
ENERGY: 27000 1648.5391 2408.1580 3191.5346 0.0000 -175612.8547 19970.4134 251.5790 0.0000 30986.9683 -117155.6623 301.2771 -148142.6306 -117096.8612 300.7018 40.5223 48.2254 497300.2599 -5.3184 -5.2814
ENERGY: 28000 1577.5119 2410.0243 3208.1620 0.0000 -175661.7728 20031.7321 255.6861 0.0000 30976.4008 -117202.2556 301.1744 -148178.6565 -117148.7921 299.1807 -70.0817 5.2539 496896.7505 -9.2368 -9.1268
ENERGY: 29000 1655.6980 2389.2208 3200.3514 0.0000 -175885.6649 20052.6799 260.9903 0.0000 30883.6900 -117443.0345 300.2730 -148326.7245 -117396.2492 299.9860 -51.4220 -11.3212 498753.8301 1.6654 2.3856
ENERGY: 30000 1680.4665 2424.6595 3208.7998 0.0000 -175738.0282 20030.7035 251.0483 0.0000 30802.8564 -117339.4943 299.4871 -148142.3507 -117304.2629 299.5850 -11.1388 -5.6538 495951.7257 -4.9162 -4.7908
TCL: Setting parameter constraintScaling to 0.15625
TCL: Running for 5000 steps
ETITLE: TS BOND ANGLE DIHED IMPRP ELECT VDW BOUNDARY MISC KINETIC TOTAL TEMP POTENTIAL TOTAL3 TEMPAVG PRESSURE GPRESSURE VOLUME PRESSAVG GPRESSAVG
ENERGY: 30000 1680.4665 2424.6595 3208.7998 0.0000 -175738.0282 20030.7035 125.5241 0.0000 30800.8322 -117467.0426 299.4674 -148267.8748 -117426.3683 299.4674 -31.8610 -33.3313 495951.7257 -31.8610 -33.3313
ENERGY: 31000 1630.5363 2428.9361 3237.1542 0.0000 -175498.5670 19812.5579 191.9185 0.0000 30911.8963 -117285.5678 300.5472 -148197.4641 -117246.0171 300.2304 -203.3349 -32.2202 495550.2799 9.7771 9.5196
ENERGY: 32000 1623.6799 2491.3739 3202.9241 0.0000 -175442.4931 19928.9089 200.8340 0.0000 31017.2504 -116977.5219 301.5716 -147994.7723 -116933.2613 300.9345 45.2124 -33.6861 495714.6505 -0.9935 -0.7944
ENERGY: 33000 1629.7981 2389.2636 3183.4723 0.0000 -175888.2378 20091.7664 191.5149 0.0000 30835.7228 -117566.6996 299.8066 -148402.4225 -117521.0729 299.2052 8.4015 -8.5596 498787.9740 13.8811 13.5231
ENERGY: 34000 1624.8947 2388.7054 3159.4419 0.0000 -175508.6049 20028.3867 200.2229 0.0000 30582.1313 -117524.8219 297.3410 -148106.9533 -117488.0460 299.3971 6.1382 34.3705 498573.5345 5.1206 5.1382
ENERGY: 35000 1616.4363 2453.4558 3209.2970 0.0000 -175512.5009 19994.8422 195.3750 0.0000 30946.6227 -117096.4718 300.8849 -148043.0946 -117056.4764 300.6141 -26.0590 12.2782 498238.6077 0.4079 1.1207
TCL: Setting parameter constraintScaling to 0.078125
TCL: Running for 5000 steps
ETITLE: TS BOND ANGLE DIHED IMPRP ELECT VDW BOUNDARY MISC KINETIC TOTAL TEMP POTENTIAL TOTAL3 TEMPAVG PRESSURE GPRESSURE VOLUME PRESSAVG GPRESSAVG
ENERGY: 35000 1616.4363 2453.4558 3209.2970 0.0000 -175512.5009 19994.8422 97.6875 0.0000 30944.5721 -117196.2099 300.8649 -148140.7821 -117153.8902 300.8649 -34.9129 3.6389 498238.6077 -34.9129 3.6389
ENERGY: 36000 1646.9019 2449.5421 3177.4890 0.0000 -175827.8121 20027.4210 141.8441 0.0000 30913.3568 -117471.2572 300.5614 -148384.6140 -117432.9829 299.7254 36.0381 -12.0062 497502.8925 5.4778 5.1127
ENERGY: 37000 1676.3737 2408.9459 3217.0062 0.0000 -175970.8516 20116.2115 160.2246 0.0000 31017.4208 -117374.6689 301.5732 -148392.0897 -117330.9572 300.4539 -45.3351 -89.5299 499260.7477 9.3953 9.9183
ENERGY: 38000 1626.3052 2448.7159 3218.6733 0.0000 -175873.8660 20094.9394 171.3973 0.0000 30727.4501 -117586.3848 298.7539 -148313.8349 -117540.0548 299.8623 138.5679 121.7649 496701.0219 -14.2855 -13.9752
ENERGY: 39000 1613.0032 2473.4305 3198.7960 0.0000 -175740.0188 19830.5771 166.6306 0.0000 30794.0143 -117663.5671 299.4011 -148457.5814 -117625.7290 299.2881 -100.0157 -15.0771 496910.7107 1.9007 1.4200
ENERGY: 40000 1587.7509 2442.0728 3210.1435 0.0000 -176007.9176 19957.4404 165.0828 0.0000 30762.6577 -117882.7695 299.0962 -148645.4272 -117838.1873 298.5227 84.1622 80.1258 496427.6716 -4.8693 -4.3303
TCL: Setting parameter constraintScaling to 0.0390625
TCL: Running for 5000 steps
ETITLE: TS BOND ANGLE DIHED IMPRP ELECT VDW BOUNDARY MISC KINETIC TOTAL TEMP POTENTIAL TOTAL3 TEMPAVG PRESSURE GPRESSURE VOLUME PRESSAVG GPRESSAVG
ENERGY: 40000 1587.7509 2442.0728 3210.1435 0.0000 -176007.9176 19957.4404 82.5414 0.0000 30760.6117 -117967.3569 299.0763 -148727.9686 -117925.9353 299.0763 74.7387 72.7063 496427.6716 74.7387 72.7063
ENERGY: 41000 1626.8907 2418.8783 3186.3133 0.0000 -175967.3604 19985.7835 113.0956 0.0000 30875.1881 -117761.2109 300.1903 -148636.3990 -117711.5041 299.8839 -103.4161 -128.0708 496278.2011 2.9117 2.9106
ENERGY: 42000 1577.9830 2487.4836 3210.8103 0.0000 -175827.7505 19927.4510 114.8516 0.0000 30750.2806 -117758.8904 298.9759 -148509.1710 -117707.2071 298.6205 -76.2118 21.6063 496093.9497 -0.7514 -0.1239
ENERGY: 43000 1641.1874 2368.6380 3235.1373 0.0000 -176084.3175 20181.6579 111.6925 0.0000 30773.5414 -117772.4630 299.2021 -148546.0044 -117728.6403 299.4121 50.3652 40.6963 495298.6895 -3.1365 -3.2489
ENERGY: 44000 1598.9450 2385.8267 3217.2596 0.0000 -176100.8489 20033.8842 118.8824 0.0000 30927.8817 -117818.1694 300.7027 -148746.0510 -117761.0032 300.0001 -146.8519 -99.7375 496456.0710 -8.8150 -8.8737
ENERGY: 45000 1652.6130 2406.4745 3253.1617 0.0000 -175870.0290 19984.0227 123.9442 0.0000 30858.3202 -117591.4927 300.0263 -148449.8129 -117545.7719 299.7378 -13.9294 41.4550 496596.5266 5.0543 4.8362
TCL: Setting parameter constraintScaling to 0.01953125
TCL: Running for 5000 steps
ETITLE: TS BOND ANGLE DIHED IMPRP ELECT VDW BOUNDARY MISC KINETIC TOTAL TEMP POTENTIAL TOTAL3 TEMPAVG PRESSURE GPRESSURE VOLUME PRESSAVG GPRESSAVG
ENERGY: 45000 1652.6130 2406.4745 3253.1617 0.0000 -175870.0290 19984.0227 61.9721 0.0000 30856.2775 -117655.5075 300.0065 -148511.7850 -117615.8738 300.0065 -22.5185 33.1633 496596.5266 -22.5185 33.1633
ENERGY: 46000 1628.0505 2413.2358 3220.0192 0.0000 -176081.9709 20196.8750 76.3432 0.0000 30892.9614 -117654.4858 300.3631 -148547.4472 -117609.2774 299.6759 124.3713 105.2652 496627.4591 -6.3221 -5.9472
ENERGY: 47000 1708.6932 2330.0321 3223.0275 0.0000 -175970.1776 20050.3902 84.1050 0.0000 30953.6624 -117620.2671 300.9533 -148573.9295 -117579.7963 298.9087 1.7479 -1.0116 497140.2912 -3.1304 -2.5825
ENERGY: 48000 1644.0887 2394.9331 3229.4451 0.0000 -175882.8510 20003.5496 94.5927 0.0000 30716.4928 -117799.7490 298.6474 -148516.2418 -117754.7044 299.4778 -97.4161 -61.4112 496394.8582 -6.0848 -5.7141
ENERGY: 49000 1661.8010 2385.9319 3209.6917 0.0000 -175703.6982 19959.5186 92.2053 0.0000 30963.1938 -117431.3559 301.0460 -148394.5496 -117387.1606 300.2392 -167.9353 -76.8083 497640.3059 0.8942 1.0238
ENERGY: 50000 1665.0809 2415.0816 3192.4558 0.0000 -175641.3285 19940.2207 105.1128 0.0000 30789.7437 -117533.6330 299.3596 -148323.3768 -117485.2290 299.3403 -138.1886 5.3024 498795.5251 19.2289 20.3187
TCL: Setting parameter constraintScaling to 0
TCL: Running for 5000 steps
ETITLE: TS BOND ANGLE DIHED IMPRP ELECT VDW BOUNDARY MISC KINETIC TOTAL TEMP POTENTIAL TOTAL3 TEMPAVG PRESSURE GPRESSURE VOLUME PRESSAVG GPRESSAVG
ENERGY: 50000 1665.0809 2415.0816 3192.4558 0.0000 -175641.3285 19940.2207 0.0000 0.0000 30787.6869 -117640.8027 299.3396 -148428.4896 -117598.3126 299.3396 -150.9443 -8.0495 498795.5251 -150.9443 -8.0495
ENERGY: 51000 1557.4837 2429.4842 3211.6375 0.0000 -175717.8829 19828.7977 0.0000 0.0000 30821.8798 -117868.6000 299.6720 -148690.4797 -117830.2709 298.5226 -131.3215 -23.8586 496856.9445 -3.7597 -3.3909
ENERGY: 52000 1692.2555 2353.9615 3195.9932 0.0000 -176079.8581 20135.8211 0.0000 0.0000 30983.1333 -117718.6936 301.2399 -148701.8269 -117672.0780 299.5759 -38.7843 -38.1560 497417.2518 -2.3756 -2.4252
ENERGY: 53000 1579.5169 2358.9053 3185.6813 0.0000 -176106.3814 19992.1726 0.0000 0.0000 30630.6939 -118359.4115 297.8132 -148990.1054 -118305.9233 299.0984 70.2695 16.3001 495707.5444 -13.1430 -13.3654
ENERGY: 54000 1653.6512 2401.1053 3165.3244 0.0000 -176250.1705 20160.4584 0.0000 0.0000 30871.5631 -117998.0681 300.1551 -148869.6312 -117961.0886 298.2042 -44.6451 14.5316 497547.3742 20.1139 19.9425
ENERGY: 55000 1615.8777 2416.6188 3217.2502 0.0000 -175751.2172 19936.2336 0.0000 0.0000 30921.0628 -117644.1741 300.6364 -148565.2369 -117596.5655 300.1188 -31.6717 -57.2467 497014.9806 1.1502 1.0012
