Info: SIMULATION PARAMETERS:
Info: TIMESTEP               2
Info: NUMBER OF STEPS        0
Info: STEPS PER CYCLE        10
Info: PERIODIC CELL BASIS 1  72.449 0 0
Info: PERIODIC CELL BASIS 2  0 93.247 0
Info: PERIODIC CELL BASIS 3  0 0 79.185
Info: PERIODIC CELL CENTER   -0.248 -0.156 -0.047
Info: WRAPPING WATERS AROUND PERIODIC BOUNDARIES ON OUTPUT.
Info: WRAPPING ALL CLUSTERS AROUND PERIODIC BOUNDARIES ON OUTPUT.
Info: FIRST LDB TIMESTEP     50
Info: LAST LDB TIMESTEP     -1
Info: HOM BACKGROUND SCALING 1
Info: PME BACKGROUND SCALING 1
Info: MIN ATOMS PER PATCH    40
Info: INITIAL TEMPERATURE    0
Info: CENTER OF MASS MOVING INITIALLY? NO
Info: DIELECTRIC             1
Info: EXCLUDE                SCALED ONE-FOUR
Info: 1-4 ELECTROSTATICS SCALED BY 0.833333
Info: MODIFIED 1-4 VDW PARAMETERS WILL BE USED
Info: NO DCD TRAJECTORY OUTPUT
Info: NO EXTENDED SYSTEM TRAJECTORY OUTPUT
Info: NO VELOCITY DCD OUTPUT
Info: NO FORCE DCD OUTPUT
Info: OUTPUT FILENAME        ../replicas/rep45/equilibration/eq0
Info: NO RESTART FILE
Info: SWITCHING ACTIVE
Info: SWITCHING ON           10
Info: SWITCHING OFF          12
Info: PAIRLIST DISTANCE      13.5
Info: PAIRLIST SHRINK RATE   0.01
Info: PAIRLIST GROW RATE     0.01
Info: PAIRLIST TRIGGER       0.3
Info: PAIRLISTS PER CYCLE    2
Info: PAIRLISTS ENABLED
Info: MARGIN                 0
Info: HYDROGEN GROUP CUTOFF  2.5
Info: PATCH DIMENSION        16
Info: ENERGY OUTPUT STEPS    500
Info: CROSSTERM ENERGY INCLUDED IN DIHEDRAL
Info: TIMING OUTPUT STEPS    5000
Info: PRESSURE OUTPUT STEPS  500
Info: HARMONIC CONSTRAINTS ACTIVE
Info: HARMONIC CONS EXP      2
Info: HARMONIC CONS SCALING  10
Info: CONJUGATE GRADIENT MINIMIZATION ACTIVE
Info: LINE MINIMIZATION GOAL = 0.001
Info: BABY STEP SIZE = 0.01
Info: TINY STEP SIZE = 1e-06
Info: PARTICLE MESH EWALD (PME) ACTIVE
Info: PME TOLERANCE               1e-06
Info: PME EWALD COEFFICIENT       0.257952
Info: PME INTERPOLATION ORDER     4
Info: PME GRID DIMENSIONS         80 96 80
Info: PME MAXIMUM GRID SPACING    1
Info: FULL ELECTROSTATIC EVALUATION FREQUENCY      2
Info: USING VERLET I (r-RESPA) MTS SCHEME.
Info: C1 SPLITTING OF LONG RANGE ELECTROSTATICS
Info: PLACING ATOMS IN PATCHES BY HYDROGEN GROUPS
Info: RIGID BONDS TO HYDROGEN : ALL
Info:         ERROR TOLERANCE : 1e-05
Info:          MAX ITERATIONS : 100
Info: RIGID WATER USING SETTLE ALGORITHM
Info: RANDOM NUMBER SEED     1503694537
Info: USE HYDROGEN BONDS?    NO
Info: Using AMBER format force field!
Info: AMBER PARM FILE        ../build/complex.top
Info: COORDINATE PDB         ../build/complex.pdb
Info: Exclusions in PARM file will be ignored!
Info: SCNB (VDW SCALING)     2
Info: USING ARITHMETIC MEAN TO COMBINE L-J SIGMA PARAMETERS
Info: SUMMARY OF PARAMETERS:
Info: 71 BONDS
Info: 145 ANGLES
Info: 76 DIHEDRAL
Info: 0 IMPROPER
Info: 0 CROSSTERM
Info: 0 VDW
Info: 190 VDW_PAIRS
Info: 0 NBTHOLE_PAIRS
Info: STRUCTURE SUMMARY:
Info: 49394 ATOMS
Info: 49448 BONDS
Info: 8698 ANGLES
Info: 18780 DIHEDRALS
Info: 0 IMPROPERS
Info: 0 CROSSTERMS
Info: 0 EXCLUSIONS
Info: 2336 CONSTRAINTS
Info: 47058 RIGID BONDS
Info: 101124 DEGREES OF FREEDOM
Info: 17225 HYDROGEN GROUPS
Info: 4 ATOMS IN LARGEST HYDROGEN GROUP
Info: 17225 MIGRATION GROUPS
Info: 4 ATOMS IN LARGEST MIGRATION GROUP
Info: TOTAL MASS = 301478 amu
Info: TOTAL CHARGE = 1.00115e-05 e
Info: MASS DENSITY = 0.935846 g/cm^3
Info: ATOM DENSITY = 0.0923345 atoms/A^3
Info: ADDED 70656 IMPLICIT EXCLUSIONS
Info: NONBONDED TABLE R-SQUARED SPACING: 0.0625
Info: NONBONDED TABLE SIZE: 769 POINTS
Info: REMOVING COM VELOCITY 0 0 0
TCL: Minimizing for 100 steps
ETITLE: TS BOND ANGLE DIHED IMPRP ELECT VDW BOUNDARY MISC KINETIC TOTAL TEMP POTENTIAL TOTAL3 TEMPAVG PRESSURE GPRESSURE VOLUME PRESSAVG GPRESSAVG
ENERGY: 0 155.4176 1012.2698 2855.7272 0.0000 -154496.7911 207729.2052 0.0468 0.0000 0.0000 57255.8755 0.0000 57255.8755 57255.8755 0.0000 116350.2532 86546.1670 534946.2959 116350.2532 86546.1670
ENERGY: 20 304.7543 935.7911 2893.4663 0.0000 -158672.9399 17936.6597 143.9454 0.0000 0.0000 -136458.3231 0.0000 -136458.3231 -136458.3231 0.0000 16523.9390 -239.4555 534946.2959 16523.9390 -239.4555
ENERGY: 40 198.7416 799.5723 2896.9273 0.0000 -162811.4535 16417.9535 221.3029 0.0000 0.0000 -142276.9558 0.0000 -142276.9558 -142276.9558 0.0000 15011.2702 -2135.4699 534946.2959 15011.2702 -2135.4699
ENERGY: 60 130.5286 715.3440 2898.2165 0.0000 -167496.1534 15446.7545 315.2795 0.0000 0.0000 -147990.0302 0.0000 -147990.0302 -147990.0302 0.0000 13793.8846 -3799.3975 534946.2959 13793.8846 -3799.3975
ENERGY: 80 431.2749 765.6312 2904.3782 0.0000 -169937.5169 15121.1538 372.0119 0.0000 0.0000 -150343.0668 0.0000 -150343.0668 -150343.0668 0.0000 13270.3339 -4577.2408 534946.2959 13270.3339 -4577.2408
ENERGY: 100 119.3903 710.0606 2905.2589 0.0000 -171259.7204 14991.7860 387.3613 0.0000 0.0000 -152145.8633 0.0000 -152145.8633 -152145.8633 0.0000 13056.2641 -4908.1751 534946.2959 13056.2641 -4908.1751
TCL: Setting parameter constraintScaling to 5.0
TCL: Minimizing for 100 steps
ETITLE: TS BOND ANGLE DIHED IMPRP ELECT VDW BOUNDARY MISC KINETIC TOTAL TEMP POTENTIAL TOTAL3 TEMPAVG PRESSURE GPRESSURE VOLUME PRESSAVG GPRESSAVG
ENERGY: 100 119.3903 710.0606 2905.2589 0.0000 -171259.7205 14991.7860 193.6807 0.0000 0.0000 -152339.5440 0.0000 -152339.5440 -152339.5440 0.0000 13672.7704 -23021.8214 534946.2959 13672.7704 -23021.8214
ENERGY: 120 166.4463 692.2071 2910.8261 0.0000 -172914.7684 14833.3498 281.9271 0.0000 0.0000 -154030.0120 0.0000 -154030.0120 -154030.0120 0.0000 13225.2911 -4913.0015 534946.2959 13225.2911 -4913.0015
ENERGY: 140 225.0967 696.9069 2912.9602 0.0000 -174149.3891 14732.6766 321.1803 0.0000 0.0000 -155260.5685 0.0000 -155260.5685 -155260.5685 0.0000 12997.6518 -5265.6179 534946.2959 12997.6518 -5265.6179
ENERGY: 160 270.1150 684.1117 2923.2819 0.0000 -176283.8071 14758.0607 383.2290 0.0000 0.0000 -157265.0089 0.0000 -157265.0089 -157265.0089 0.0000 12739.6389 -5745.2408 534946.2959 12739.6389 -5745.2408
ENERGY: 180 172.7564 724.9565 2929.2188 0.0000 -179192.0990 15054.0797 478.3072 0.0000 0.0000 -159832.7803 0.0000 -159832.7803 -159832.7803 0.0000 12525.4168 -6233.5667 534946.2959 12525.4168 -6233.5667
ENERGY: 200 239.5866 694.1175 2941.3944 0.0000 -181557.7483 15587.3523 546.3202 0.0000 0.0000 -161548.9773 0.0000 -161548.9773 -161548.9773 0.0000 12582.6710 -6420.5305 534946.2959 12582.6710 -6420.5305
TCL: Setting parameter constraintScaling to 2.5
TCL: Minimizing for 100 steps
ETITLE: TS BOND ANGLE DIHED IMPRP ELECT VDW BOUNDARY MISC KINETIC TOTAL TEMP POTENTIAL TOTAL3 TEMPAVG PRESSURE GPRESSURE VOLUME PRESSAVG GPRESSAVG
ENERGY: 200 239.5866 694.1175 2941.3944 0.0000 -181557.7483 15587.3523 273.1601 0.0000 0.0000 -161822.1374 0.0000 -161822.1374 -161822.1374 0.0000 13229.6432 -25651.6165 534946.2959 13229.6432 -25651.6165
ENERGY: 220 245.3114 676.2269 2932.9768 0.0000 -182072.0379 15473.2137 336.7818 0.0000 0.0000 -162407.5273 0.0000 -162407.5273 -162407.5273 0.0000 12974.8751 -6082.4912 534946.2959 12974.8751 -6082.4912
ENERGY: 240 153.8042 693.9454 2928.7604 0.0000 -182681.0660 15530.0107 346.9671 0.0000 0.0000 -163027.5784 0.0000 -163027.5784 -163027.5784 0.0000 13033.9530 -6127.2508 534946.2959 13033.9530 -6127.2508
ENERGY: 260 144.8442 677.0116 2920.6479 0.0000 -184119.0132 15841.1323 392.6340 0.0000 0.0000 -164142.7433 0.0000 -164142.7433 -164142.7433 0.0000 13043.5763 -6256.1292 534946.2959 13043.5763 -6256.1292
ENERGY: 280 171.5231 701.1305 2917.5058 0.0000 -185423.1033 16227.5001 455.9264 0.0000 0.0000 -164949.5175 0.0000 -164949.5175 -164949.5175 0.0000 13140.2924 -6338.0257 534946.2959 13140.2924 -6338.0257
ENERGY: 300 126.7497 639.6333 2916.1883 0.0000 -186089.1480 16442.9252 481.8147 0.0000 0.0000 -165481.8367 0.0000 -165481.8367 -165481.8367 0.0000 13205.6038 -6340.5931 534946.2959 13205.6038 -6340.5931
TCL: Setting parameter constraintScaling to 1.25
TCL: Minimizing for 100 steps
ETITLE: TS BOND ANGLE DIHED IMPRP ELECT VDW BOUNDARY MISC KINETIC TOTAL TEMP POTENTIAL TOTAL3 TEMPAVG PRESSURE GPRESSURE VOLUME PRESSAVG GPRESSAVG
ENERGY: 300 126.7497 639.6333 2916.1883 0.0000 -186089.1480 16442.9252 240.9074 0.0000 0.0000 -165722.7441 0.0000 -165722.7441 -165722.7441 0.0000 13654.1203 -26349.8673 534946.2959 13654.1203 -26349.8673
ENERGY: 320 148.4359 635.8496 2911.2575 0.0000 -186786.3216 16611.9107 282.5965 0.0000 0.0000 -166196.2714 0.0000 -166196.2714 -166196.2714 0.0000 13613.2705 -5995.3581 534946.2959 13613.2705 -5995.3581
ENERGY: 340 137.4501 624.7187 2909.3341 0.0000 -187213.7473 16760.1972 288.1130 0.0000 0.0000 -166493.9342 0.0000 -166493.9342 -166493.9342 0.0000 13694.6400 -5968.0569 534946.2959 13694.6400 -5968.0569
ENERGY: 360 177.6840 663.6680 2907.4554 0.0000 -188607.3286 17230.2284 339.9143 0.0000 0.0000 -167288.3785 0.0000 -167288.3785 -167288.3785 0.0000 13847.9903 -5992.1768 534946.2959 13847.9903 -5992.1768
ENERGY: 380 201.2155 648.0722 2901.5706 0.0000 -190307.6849 17892.3416 397.3982 0.0000 0.0000 -168267.0868 0.0000 -168267.0868 -168267.0868 0.0000 14007.0675 -5981.7487 534946.2959 14007.0675 -5981.7487
ENERGY: 400 139.8524 652.6093 2901.9785 0.0000 -190526.3852 17939.7262 396.2090 0.0000 0.0000 -168496.0098 0.0000 -168496.0098 -168496.0098 0.0000 14131.5408 -5926.7518 534946.2959 14131.5408 -5926.7518
TCL: Setting parameter constraintScaling to 0.625
TCL: Minimizing for 100 steps
ETITLE: TS BOND ANGLE DIHED IMPRP ELECT VDW BOUNDARY MISC KINETIC TOTAL TEMP POTENTIAL TOTAL3 TEMPAVG PRESSURE GPRESSURE VOLUME PRESSAVG GPRESSAVG
ENERGY: 400 139.8524 652.6093 2901.9785 0.0000 -190526.3852 17939.7262 198.1045 0.0000 0.0000 -168694.1143 0.0000 -168694.1143 -168694.1143 0.0000 14430.3531 -26609.5093 534946.2959 14430.3531 -26609.5093
ENERGY: 420 358.8899 671.4133 2898.9194 0.0000 -190924.7014 18042.0700 218.3916 0.0000 0.0000 -168735.0173 0.0000 -168735.0173 -168735.0173 0.0000 14322.0182 -5748.9526 534946.2959 14322.0182 -5748.9526
ENERGY: 440 173.8830 645.3395 2892.4372 0.0000 -191452.7043 18195.5215 240.8269 0.0000 0.0000 -169304.6962 0.0000 -169304.6962 -169304.6962 0.0000 14380.2918 -5753.0222 534946.2959 14380.2918 -5753.0222
ENERGY: 460 207.9741 650.7671 2886.0436 0.0000 -192216.2013 18462.6925 263.1309 0.0000 0.0000 -169745.5931 0.0000 -169745.5931 -169745.5931 0.0000 14521.8218 -5719.0905 534946.2959 14521.8218 -5719.0905
ENERGY: 480 241.1618 661.9886 2891.3653 0.0000 -193402.3139 18927.1254 293.7817 0.0000 0.0000 -170386.8912 0.0000 -170386.8912 -170386.8912 0.0000 14655.2511 -5691.2551 534946.2959 14655.2511 -5691.2551
ENERGY: 500 145.7392 636.6087 2877.3806 0.0000 -194640.3532 19460.5294 322.3666 0.0000 0.0000 -171197.7288 0.0000 -171197.7288 -171197.7288 0.0000 14942.5665 -5553.1651 534946.2959 14942.5665 -5553.1651
TCL: Setting parameter constraintScaling to 0.3125
TCL: Minimizing for 100 steps
ETITLE: TS BOND ANGLE DIHED IMPRP ELECT VDW BOUNDARY MISC KINETIC TOTAL TEMP POTENTIAL TOTAL3 TEMPAVG PRESSURE GPRESSURE VOLUME PRESSAVG GPRESSAVG
ENERGY: 500 145.7392 636.6087 2877.3806 0.0000 -194640.3532 19460.5294 161.1833 0.0000 0.0000 -171358.9121 0.0000 -171358.9121 -171358.9121 0.0000 15144.5113 -26865.1421 534946.2959 15144.5113 -26865.1421
ENERGY: 520 175.2679 668.2697 2878.6640 0.0000 -194997.7749 19562.0151 177.2059 0.0000 0.0000 -171536.3523 0.0000 -171536.3523 -171536.3523 0.0000 15128.4487 -5399.7741 534946.2959 15128.4487 -5399.7741
ENERGY: 540 153.3970 658.3297 2869.4335 0.0000 -195842.5582 19861.6425 196.4242 0.0000 0.0000 -172103.3313 0.0000 -172103.3313 -172103.3313 0.0000 15248.7858 -5370.2557 534946.2959 15248.7858 -5370.2557
ENERGY: 560 163.9718 651.6919 2872.2568 0.0000 -196166.3869 19969.7878 204.2489 0.0000 0.0000 -172304.4297 0.0000 -172304.4297 -172304.4297 0.0000 15296.5043 -5367.6185 534946.2959 15296.5043 -5367.6185
ENERGY: 580 165.7581 644.2048 2865.4272 0.0000 -196529.2560 20109.4676 207.3263 0.0000 0.0000 -172537.0720 0.0000 -172537.0720 -172537.0720 0.0000 15374.9527 -5334.2972 534946.2959 15374.9527 -5334.2972
ENERGY: 600 271.2217 672.8877 2865.0896 0.0000 -197638.5476 20560.5749 219.9066 0.0000 0.0000 -173048.8672 0.0000 -173048.8672 -173048.8672 0.0000 15617.5113 -5231.7978 534946.2959 15617.5113 -5231.7978
TCL: Setting parameter constraintScaling to 0.15625
TCL: Minimizing for 100 steps
ETITLE: TS BOND ANGLE DIHED IMPRP ELECT VDW BOUNDARY MISC KINETIC TOTAL TEMP POTENTIAL TOTAL3 TEMPAVG PRESSURE GPRESSURE VOLUME PRESSAVG GPRESSAVG
ENERGY: 600 271.2217 672.8877 2865.0896 0.0000 -197638.5476 20560.5749 109.9533 0.0000 0.0000 -173158.8205 0.0000 -173158.8205 -173158.8205 0.0000 15739.7981 -26980.9698 534946.2959 15739.7981 -26980.9698
ENERGY: 620 151.3842 638.0309 2860.5142 0.0000 -197766.7072 20588.2863 115.4095 0.0000 0.0000 -173413.0822 0.0000 -173413.0822 -173413.0822 0.0000 15712.9908 -5135.3232 534946.2959 15712.9908 -5135.3232
ENERGY: 640 226.4376 674.5529 2853.7528 0.0000 -198501.3921 20842.4337 131.3506 0.0000 0.0000 -173772.8646 0.0000 -173772.8646 -173772.8646 0.0000 15772.5547 -5157.8983 534946.2959 15772.5547 -5157.8983
ENERGY: 660 206.8128 685.8714 2862.1015 0.0000 -198840.5572 20958.1708 136.2655 0.0000 0.0000 -173991.3350 0.0000 -173991.3350 -173991.3350 0.0000 15835.7294 -5131.5991 534946.2959 15835.7294 -5131.5991
ENERGY: 680 177.2531 677.3442 2858.2369 0.0000 -199343.4141 21165.9436 138.3451 0.0000 0.0000 -174326.2911 0.0000 -174326.2911 -174326.2911 0.0000 15958.9164 -5082.2461 534946.2959 15958.9164 -5082.2461
ENERGY: 700 194.6988 659.9925 2859.7712 0.0000 -200140.6954 21527.5994 142.6075 0.0000 0.0000 -174756.0259 0.0000 -174756.0259 -174756.0259 0.0000 16191.6568 -4939.9035 534946.2959 16191.6568 -4939.9035
TCL: Setting parameter constraintScaling to 0.078125
TCL: Minimizing for 100 steps
ETITLE: TS BOND ANGLE DIHED IMPRP ELECT VDW BOUNDARY MISC KINETIC TOTAL TEMP POTENTIAL TOTAL3 TEMPAVG PRESSURE GPRESSURE VOLUME PRESSAVG GPRESSAVG
ENERGY: 700 194.6988 659.9925 2859.7712 0.0000 -200140.6953 21527.5994 71.3037 0.0000 0.0000 -174827.3297 0.0000 -174827.3297 -174827.3297 0.0000 16264.4157 -27058.6113 534946.2959 16264.4157 -27058.6113
ENERGY: 720 195.2916 652.8914 2845.2641 0.0000 -200284.2377 21522.1721 75.7934 0.0000 0.0000 -174992.8251 0.0000 -174992.8251 -174992.8251 0.0000 16220.0550 -4925.3190 534946.2959 16220.0550 -4925.3190
ENERGY: 740 161.7725 656.0630 2837.5763 0.0000 -200573.1852 21613.7523 81.1653 0.0000 0.0000 -175222.8557 0.0000 -175222.8557 -175222.8557 0.0000 16222.5889 -4953.6943 534946.2959 16222.5889 -4953.6943
ENERGY: 760 226.6600 677.1622 2844.2907 0.0000 -200771.3045 21676.5619 83.3101 0.0000 0.0000 -175263.3197 0.0000 -175263.3197 -175263.3197 0.0000 16240.3595 -4964.5601 534946.2959 16240.3595 -4964.5601
ENERGY: 780 172.5240 671.2945 2841.6727 0.0000 -201431.3734 21961.0274 85.8147 0.0000 0.0000 -175699.0401 0.0000 -175699.0401 -175699.0401 0.0000 16430.6445 -4850.1404 534946.2959 16430.6445 -4850.1404
ENERGY: 800 183.2970 660.0291 2839.0196 0.0000 -202391.0791 22380.6120 95.5612 0.0000 0.0000 -176232.5602 0.0000 -176232.5602 -176232.5602 0.0000 16649.8525 -4746.3059 534946.2959 16649.8525 -4746.3059
TCL: Setting parameter constraintScaling to 0.0390625
TCL: Minimizing for 100 steps
ETITLE: TS BOND ANGLE DIHED IMPRP ELECT VDW BOUNDARY MISC KINETIC TOTAL TEMP POTENTIAL TOTAL3 TEMPAVG PRESSURE GPRESSURE VOLUME PRESSAVG GPRESSAVG
ENERGY: 800 183.2970 660.0291 2839.0196 0.0000 -202391.0791 22380.6120 47.7806 0.0000 0.0000 -176280.3408 0.0000 -176280.3408 -176280.3408 0.0000 16692.5353 -27167.1224 534946.2959 16692.5353 -27167.1224
ENERGY: 820 157.4455 645.7489 2830.2514 0.0000 -202465.0252 22383.9023 48.6136 0.0000 0.0000 -176399.0635 0.0000 -176399.0635 -176399.0635 0.0000 16666.2781 -4737.8209 534946.2959 16666.2781 -4737.8209
ENERGY: 840 280.3285 691.5583 2828.2540 0.0000 -203042.1004 22604.2903 53.8790 0.0000 0.0000 -176583.7903 0.0000 -176583.7903 -176583.7903 0.0000 16727.1401 -4747.2338 534946.2959 16727.1401 -4747.2338
ENERGY: 860 166.8711 653.1032 2822.6957 0.0000 -202998.8246 22567.5151 52.4481 0.0000 0.0000 -176736.1914 0.0000 -176736.1914 -176736.1914 0.0000 16720.8683 -4740.0665 534946.2959 16720.8683 -4740.0665
ENERGY: 880 184.7041 663.2234 2827.4621 0.0000 -203358.2796 22726.2215 53.0887 0.0000 0.0000 -176903.5797 0.0000 -176903.5797 -176903.5797 0.0000 16819.4940 -4685.3674 534946.2959 16819.4940 -4685.3674
ENERGY: 900 177.5321 672.0685 2827.0186 0.0000 -204205.7437 23135.0823 57.1516 0.0000 0.0000 -177336.8907 0.0000 -177336.8907 -177336.8907 0.0000 17081.3958 -4533.2833 534946.2959 17081.3958 -4533.2833
TCL: Setting parameter constraintScaling to 0.01953125
TCL: Minimizing for 100 steps
ETITLE: TS BOND ANGLE DIHED IMPRP ELECT VDW BOUNDARY MISC KINETIC TOTAL TEMP POTENTIAL TOTAL3 TEMPAVG PRESSURE GPRESSURE VOLUME PRESSAVG GPRESSAVG
ENERGY: 900 177.5321 672.0685 2827.0186 0.0000 -204205.7437 23135.0823 28.5758 0.0000 0.0000 -177365.4665 0.0000 -177365.4665 -177365.4665 0.0000 17105.4334 -27186.5077 534946.2959 17105.4334 -27186.5077
ENERGY: 920 202.6499 721.2472 2825.3650 0.0000 -204404.6161 23172.6191 30.1407 0.0000 0.0000 -177452.5941 0.0000 -177452.5941 -177452.5941 0.0000 17119.4685 -4540.3220 534946.2959 17119.4685 -4540.3220
ENERGY: 940 488.1213 795.7613 2837.3658 0.0000 -205005.6813 23456.5368 32.7769 0.0000 0.0000 -177395.1191 0.0000 -177395.1191 -177395.1191 0.0000 17157.5663 -4552.0343 534946.2959 17157.5663 -4552.0343
ENERGY: 960 216.3923 683.8592 2819.5732 0.0000 -204929.1466 23408.8009 31.0399 0.0000 0.0000 -177769.4810 0.0000 -177769.4810 -177769.4810 0.0000 17225.8495 -4476.6001 534946.2959 17225.8495 -4476.6001
ENERGY: 980 176.9982 672.6346 2824.6887 0.0000 -205234.3886 23559.7867 31.8229 0.0000 0.0000 -177968.4574 0.0000 -177968.4574 -177968.4574 0.0000 17286.3322 -4436.9522 534946.2959 17286.3322 -4436.9522
ENERGY: 1000 177.8616 672.0442 2810.9661 0.0000 -206023.8722 23914.4817 34.9923 0.0000 0.0000 -178413.5263 0.0000 -178413.5263 -178413.5263 0.0000 17433.1094 -4379.4429 534946.2959 17433.1094 -4379.4429
TCL: Setting parameter constraintScaling to 0
TCL: Minimizing for 5000 steps
ETITLE: TS BOND ANGLE DIHED IMPRP ELECT VDW BOUNDARY MISC KINETIC TOTAL TEMP POTENTIAL TOTAL3 TEMPAVG PRESSURE GPRESSURE VOLUME PRESSAVG GPRESSAVG
ENERGY: 1000 177.8616 672.0442 2810.9661 0.0000 -206023.8722 23914.4817 0.0000 0.0000 0.0000 -178448.5187 0.0000 -178448.5187 -178448.5187 0.0000 17460.3553 -27268.2290 534946.2959 17460.3553 -27268.2290
ENERGY: 2000 187.7927 673.5868 2799.3430 0.0000 -214924.3414 27804.3184 0.0000 0.0000 0.0000 -183459.3006 0.0000 -183459.3006 -183459.3006 0.0000 19527.9021 -3294.2812 534946.2959 19527.9021 -3294.2812
ENERGY: 3000 167.1126 664.8634 2790.9218 0.0000 -217537.9382 28902.8630 0.0000 0.0000 0.0000 -185012.1774 0.0000 -185012.1774 -185012.1774 0.0000 20115.7854 -2702.4050 534946.2959 20115.7854 -2702.4050
ENERGY: 4000 166.3464 665.5560 2785.8828 0.0000 -218742.5236 29382.2426 0.0000 0.0000 0.0000 -185742.4959 0.0000 -185742.4959 -185742.4959 0.0000 20366.2605 -2566.6350 534946.2959 20366.2605 -2566.6350
ENERGY: 5000 166.1505 667.1266 2785.8406 0.0000 -219472.1094 29672.9629 0.0000 0.0000 0.0000 -186180.0287 0.0000 -186180.0287 -186180.0287 0.0000 20520.6594 -2466.6043 534946.2959 20520.6594 -2466.6043
ENERGY: 6000 165.4335 667.3750 2784.6099 0.0000 -219941.7163 29835.9415 0.0000 0.0000 0.0000 -186488.3563 0.0000 -186488.3563 -186488.3563 0.0000 20610.0227 -2425.7611 534946.2959 20610.0227 -2425.7611
