Info: SIMULATION PARAMETERS:
Info: TIMESTEP               2
Info: NUMBER OF STEPS        0
Info: STEPS PER CYCLE        10
Info: PERIODIC CELL BASIS 1  72.449 0 0
Info: PERIODIC CELL BASIS 2  0 93.247 0
Info: PERIODIC CELL BASIS 3  0 0 79.185
Info: PERIODIC CELL CENTER   -0.248 -0.156 -0.047
Info: WRAPPING WATERS AROUND PERIODIC BOUNDARIES ON OUTPUT.
Info: WRAPPING ALL CLUSTERS AROUND PERIODIC BOUNDARIES ON OUTPUT.
Info: FIRST LDB TIMESTEP     50
Info: LAST LDB TIMESTEP     -1
Info: HOM BACKGROUND SCALING 1
Info: PME BACKGROUND SCALING 1
Info: MIN ATOMS PER PATCH    40
Info: INITIAL TEMPERATURE    0
Info: CENTER OF MASS MOVING INITIALLY? NO
Info: DIELECTRIC             1
Info: EXCLUDE                SCALED ONE-FOUR
Info: 1-4 ELECTROSTATICS SCALED BY 0.833333
Info: MODIFIED 1-4 VDW PARAMETERS WILL BE USED
Info: NO DCD TRAJECTORY OUTPUT
Info: NO EXTENDED SYSTEM TRAJECTORY OUTPUT
Info: NO VELOCITY DCD OUTPUT
Info: NO FORCE DCD OUTPUT
Info: OUTPUT FILENAME        ../replicas/rep38/equilibration/eq0
Info: NO RESTART FILE
Info: SWITCHING ACTIVE
Info: SWITCHING ON           10
Info: SWITCHING OFF          12
Info: PAIRLIST DISTANCE      13.5
Info: PAIRLIST SHRINK RATE   0.01
Info: PAIRLIST GROW RATE     0.01
Info: PAIRLIST TRIGGER       0.3
Info: PAIRLISTS PER CYCLE    2
Info: PAIRLISTS ENABLED
Info: MARGIN                 0
Info: HYDROGEN GROUP CUTOFF  2.5
Info: PATCH DIMENSION        16
Info: ENERGY OUTPUT STEPS    500
Info: CROSSTERM ENERGY INCLUDED IN DIHEDRAL
Info: TIMING OUTPUT STEPS    5000
Info: PRESSURE OUTPUT STEPS  500
Info: HARMONIC CONSTRAINTS ACTIVE
Info: HARMONIC CONS EXP      2
Info: HARMONIC CONS SCALING  10
Info: CONJUGATE GRADIENT MINIMIZATION ACTIVE
Info: LINE MINIMIZATION GOAL = 0.001
Info: BABY STEP SIZE = 0.01
Info: TINY STEP SIZE = 1e-06
Info: PARTICLE MESH EWALD (PME) ACTIVE
Info: PME TOLERANCE               1e-06
Info: PME EWALD COEFFICIENT       0.257952
Info: PME INTERPOLATION ORDER     4
Info: PME GRID DIMENSIONS         80 96 80
Info: PME MAXIMUM GRID SPACING    1
Info: FULL ELECTROSTATIC EVALUATION FREQUENCY      2
Info: USING VERLET I (r-RESPA) MTS SCHEME.
Info: C1 SPLITTING OF LONG RANGE ELECTROSTATICS
Info: PLACING ATOMS IN PATCHES BY HYDROGEN GROUPS
Info: RIGID BONDS TO HYDROGEN : ALL
Info:         ERROR TOLERANCE : 1e-05
Info:          MAX ITERATIONS : 100
Info: RIGID WATER USING SETTLE ALGORITHM
Info: RANDOM NUMBER SEED     1503692284
Info: USE HYDROGEN BONDS?    NO
Info: Using AMBER format force field!
Info: AMBER PARM FILE        ../build/complex.top
Info: COORDINATE PDB         ../build/complex.pdb
Info: Exclusions in PARM file will be ignored!
Info: SCNB (VDW SCALING)     2
Info: USING ARITHMETIC MEAN TO COMBINE L-J SIGMA PARAMETERS
Info: SUMMARY OF PARAMETERS:
Info: 71 BONDS
Info: 145 ANGLES
Info: 76 DIHEDRAL
Info: 0 IMPROPER
Info: 0 CROSSTERM
Info: 0 VDW
Info: 190 VDW_PAIRS
Info: 0 NBTHOLE_PAIRS
Info: STRUCTURE SUMMARY:
Info: 49394 ATOMS
Info: 49448 BONDS
Info: 8698 ANGLES
Info: 18780 DIHEDRALS
Info: 0 IMPROPERS
Info: 0 CROSSTERMS
Info: 0 EXCLUSIONS
Info: 2336 CONSTRAINTS
Info: 47058 RIGID BONDS
Info: 101124 DEGREES OF FREEDOM
Info: 17225 HYDROGEN GROUPS
Info: 4 ATOMS IN LARGEST HYDROGEN GROUP
Info: 17225 MIGRATION GROUPS
Info: 4 ATOMS IN LARGEST MIGRATION GROUP
Info: TOTAL MASS = 301478 amu
Info: TOTAL CHARGE = 1.00115e-05 e
Info: MASS DENSITY = 0.935846 g/cm^3
Info: ATOM DENSITY = 0.0923345 atoms/A^3
Info: ADDED 70656 IMPLICIT EXCLUSIONS
Info: NONBONDED TABLE R-SQUARED SPACING: 0.0625
Info: NONBONDED TABLE SIZE: 769 POINTS
Info: REMOVING COM VELOCITY 0 0 0
TCL: Minimizing for 100 steps
ETITLE: TS BOND ANGLE DIHED IMPRP ELECT VDW BOUNDARY MISC KINETIC TOTAL TEMP POTENTIAL TOTAL3 TEMPAVG PRESSURE GPRESSURE VOLUME PRESSAVG GPRESSAVG
ENERGY: 0 155.4176 1012.2698 2855.7272 0.0000 -154496.7912 207729.2052 0.0468 0.0000 0.0000 57255.8754 0.0000 57255.8754 57255.8754 0.0000 116350.2532 86546.1670 534946.2959 116350.2532 86546.1670
ENERGY: 20 304.7553 935.7912 2893.4663 0.0000 -158672.9409 17936.6593 143.9454 0.0000 0.0000 -136458.3233 0.0000 -136458.3233 -136458.3233 0.0000 16523.9386 -239.4560 534946.2959 16523.9386 -239.4560
ENERGY: 40 198.7445 799.5728 2896.9273 0.0000 -162811.4528 16417.9537 221.3030 0.0000 0.0000 -142276.9516 0.0000 -142276.9516 -142276.9516 0.0000 15011.2703 -2135.4698 534946.2959 15011.2703 -2135.4698
ENERGY: 60 130.5283 715.3440 2898.2166 0.0000 -167496.1562 15446.7540 315.2796 0.0000 0.0000 -147990.0337 0.0000 -147990.0337 -147990.0337 0.0000 13793.8838 -3799.3984 534946.2959 13793.8838 -3799.3984
ENERGY: 80 431.2740 765.6308 2904.3787 0.0000 -169937.5375 15121.1514 372.0124 0.0000 0.0000 -150343.0903 0.0000 -150343.0903 -150343.0903 0.0000 13270.3289 -4577.2475 534946.2959 13270.3289 -4577.2475
ENERGY: 100 129.7125 708.0644 2904.2780 0.0000 -171050.0621 15018.6544 384.2000 0.0000 0.0000 -151905.1529 0.0000 -151905.1529 -151905.1529 0.0000 13092.9136 -4843.6298 534946.2959 13092.9136 -4843.6298
TCL: Setting parameter constraintScaling to 5.0
TCL: Minimizing for 100 steps
ETITLE: TS BOND ANGLE DIHED IMPRP ELECT VDW BOUNDARY MISC KINETIC TOTAL TEMP POTENTIAL TOTAL3 TEMPAVG PRESSURE GPRESSURE VOLUME PRESSAVG GPRESSAVG
ENERGY: 100 129.7125 708.0644 2904.2780 0.0000 -171050.0621 15018.6544 192.1000 0.0000 0.0000 -152097.2529 0.0000 -152097.2529 -152097.2529 0.0000 13703.5088 -22944.4528 534946.2959 13703.5088 -22944.4528
ENERGY: 120 118.6818 680.2875 2909.9066 0.0000 -172396.3043 14830.1212 259.9547 0.0000 0.0000 -153597.3525 0.0000 -153597.3525 -153597.3525 0.0000 13320.9489 -4756.3048 534946.2959 13320.9489 -4756.3048
ENERGY: 140 109.1481 671.1475 2912.0863 0.0000 -174830.2053 14716.1443 337.7292 0.0000 0.0000 -156083.9500 0.0000 -156083.9500 -156083.9500 0.0000 12908.9667 -5423.1329 534946.2959 12908.9667 -5423.1329
ENERGY: 160 125.8463 667.1504 2914.1926 0.0000 -175967.1165 14735.1370 362.9203 0.0000 0.0000 -157161.8700 0.0000 -157161.8700 -157161.8700 0.0000 12806.8891 -5642.9783 534946.2959 12806.8891 -5642.9783
ENERGY: 180 303.4849 659.6856 2917.2967 0.0000 -177408.7803 14815.0203 395.3839 0.0000 0.0000 -158317.9090 0.0000 -158317.9090 -158317.9090 0.0000 12699.3125 -5900.0771 534946.2959 12699.3125 -5900.0771
ENERGY: 200 109.2110 628.4752 2923.3576 0.0000 -179543.8045 15071.1481 441.8799 0.0000 0.0000 -160369.7328 0.0000 -160369.7328 -160369.7328 0.0000 12659.9901 -6161.0014 534946.2959 12659.9901 -6161.0014
TCL: Setting parameter constraintScaling to 2.5
TCL: Minimizing for 100 steps
ETITLE: TS BOND ANGLE DIHED IMPRP ELECT VDW BOUNDARY MISC KINETIC TOTAL TEMP POTENTIAL TOTAL3 TEMPAVG PRESSURE GPRESSURE VOLUME PRESSAVG GPRESSAVG
ENERGY: 200 109.2110 628.4752 2923.3576 0.0000 -179543.8045 15071.1481 220.9399 0.0000 0.0000 -160590.6727 0.0000 -160590.6727 -160590.6727 0.0000 13208.4122 -25280.1421 534946.2959 13208.4122 -25280.1421
ENERGY: 220 169.2881 639.8629 2924.9618 0.0000 -180454.1687 15113.9698 291.3442 0.0000 0.0000 -161314.7419 0.0000 -161314.7419 -161314.7419 0.0000 13002.2486 -5923.9718 534946.2959 13002.2486 -5923.9718
ENERGY: 240 251.7421 643.1854 2921.4087 0.0000 -181893.3129 15358.7454 339.5241 0.0000 0.0000 -162378.7072 0.0000 -162378.7072 -162378.7072 0.0000 12964.0320 -6116.6742 534946.2959 12964.0320 -6116.6742
ENERGY: 260 174.5796 639.0609 2923.9327 0.0000 -184171.9446 15905.0178 437.0663 0.0000 0.0000 -164092.2874 0.0000 -164092.2874 -164092.2874 0.0000 13008.5283 -6315.3633 534946.2959 13008.5283 -6315.3633
ENERGY: 280 328.4086 683.4981 2917.5600 0.0000 -184848.0231 16109.9793 428.0877 0.0000 0.0000 -164380.4895 0.0000 -164380.4895 -164380.4895 0.0000 13133.3727 -6280.8425 534946.2959 13133.3727 -6280.8425
ENERGY: 300 183.5954 672.6261 2923.2319 0.0000 -185696.7171 16377.2774 426.8621 0.0000 0.0000 -165113.1243 0.0000 -165113.1243 -165113.1243 0.0000 13250.3384 -6244.9809 534946.2959 13250.3384 -6244.9809
TCL: Setting parameter constraintScaling to 1.25
TCL: Minimizing for 100 steps
ETITLE: TS BOND ANGLE DIHED IMPRP ELECT VDW BOUNDARY MISC KINETIC TOTAL TEMP POTENTIAL TOTAL3 TEMPAVG PRESSURE GPRESSURE VOLUME PRESSAVG GPRESSAVG
ENERGY: 300 183.5954 672.6261 2923.2319 0.0000 -185696.7171 16377.2774 213.4310 0.0000 0.0000 -165326.5553 0.0000 -165326.5553 -165326.5553 0.0000 13665.1297 -26245.1038 534946.2959 13665.1297 -26245.1038
ENERGY: 320 172.2463 670.4439 2915.2094 0.0000 -186212.7522 16481.7932 251.2747 0.0000 0.0000 -165721.7846 0.0000 -165721.7846 -165721.7846 0.0000 13637.6127 -5925.0309 534946.2959 13637.6127 -5925.0309
ENERGY: 340 144.7326 654.9768 2910.9868 0.0000 -187307.0006 16776.0610 318.1632 0.0000 0.0000 -166502.0803 0.0000 -166502.0803 -166502.0803 0.0000 13614.4691 -6057.8909 534946.2959 13614.4691 -6057.8909
ENERGY: 360 161.5029 670.7318 2911.7777 0.0000 -188419.7582 17132.4993 377.9344 0.0000 0.0000 -167165.3121 0.0000 -167165.3121 -167165.3121 0.0000 13681.6274 -6112.8804 534946.2959 13681.6274 -6112.8804
ENERGY: 380 194.4622 679.5337 2906.1181 0.0000 -188852.4277 17297.5100 362.5875 0.0000 0.0000 -167412.2161 0.0000 -167412.2161 -167412.2161 0.0000 13799.8060 -6047.3194 534946.2959 13799.8060 -6047.3194
ENERGY: 400 201.0410 690.8015 2930.5301 0.0000 -190506.0543 17999.7537 330.9833 0.0000 0.0000 -168352.9448 0.0000 -168352.9448 -168352.9448 0.0000 14262.2996 -5798.3402 534946.2959 14262.2996 -5798.3402
TCL: Setting parameter constraintScaling to 0.625
TCL: Minimizing for 100 steps
ETITLE: TS BOND ANGLE DIHED IMPRP ELECT VDW BOUNDARY MISC KINETIC TOTAL TEMP POTENTIAL TOTAL3 TEMPAVG PRESSURE GPRESSURE VOLUME PRESSAVG GPRESSAVG
ENERGY: 400 201.0410 690.8015 2930.5301 0.0000 -190506.0543 17999.7537 165.4916 0.0000 0.0000 -168518.4364 0.0000 -168518.4364 -168518.4364 0.0000 14542.9941 -26517.9094 534946.2959 14542.9941 -26517.9094
ENERGY: 420 147.6299 643.5192 2892.5833 0.0000 -190996.8876 18082.9602 205.4086 0.0000 0.0000 -169024.7864 0.0000 -169024.7864 -169024.7864 0.0000 14428.7155 -5679.4928 534946.2959 14428.7155 -5679.4928
ENERGY: 440 165.5781 679.6298 2897.4337 0.0000 -191694.1291 18288.8528 261.0123 0.0000 0.0000 -169401.6223 0.0000 -169401.6223 -169401.6223 0.0000 14371.5156 -5794.9365 534946.2959 14371.5156 -5794.9365
ENERGY: 460 163.3784 665.2503 2896.0621 0.0000 -191970.2271 18378.8990 249.0269 0.0000 0.0000 -169617.6105 0.0000 -169617.6105 -169617.6105 0.0000 14483.2935 -5728.7605 534946.2959 14483.2935 -5728.7605
ENERGY: 480 169.8346 719.0932 2926.7329 0.0000 -192801.6484 18753.9231 244.6051 0.0000 0.0000 -169987.4596 0.0000 -169987.4596 -169987.4596 0.0000 14747.9332 -5554.3193 534946.2959 14747.9332 -5554.3193
ENERGY: 500 152.1056 731.9181 2939.0297 0.0000 -194027.3263 19323.1385 267.6953 0.0000 0.0000 -170613.4391 0.0000 -170613.4391 -170613.4391 0.0000 15030.3332 -5407.5060 534946.2959 15030.3332 -5407.5060
TCL: Setting parameter constraintScaling to 0.3125
TCL: Minimizing for 100 steps
ETITLE: TS BOND ANGLE DIHED IMPRP ELECT VDW BOUNDARY MISC KINETIC TOTAL TEMP POTENTIAL TOTAL3 TEMPAVG PRESSURE GPRESSURE VOLUME PRESSAVG GPRESSAVG
ENERGY: 500 152.1056 731.9181 2939.0297 0.0000 -194027.3263 19323.1385 133.8477 0.0000 0.0000 -170747.2868 0.0000 -170747.2868 -170747.2868 0.0000 15217.7066 -26663.1878 534946.2959 15217.7066 -26663.1878
ENERGY: 520 165.2634 657.1317 2886.0856 0.0000 -194326.1945 19312.2332 154.8035 0.0000 0.0000 -171150.6771 0.0000 -171150.6771 -171150.6771 0.0000 15091.8213 -5375.5547 534946.2959 15091.8213 -5375.5547
ENERGY: 540 171.8589 667.6567 2877.6404 0.0000 -194954.8185 19512.6279 183.3318 0.0000 0.0000 -171541.7027 0.0000 -171541.7027 -171541.7027 0.0000 15065.2819 -5467.4258 534946.2959 15065.2819 -5467.4258
ENERGY: 560 160.7334 665.9548 2874.8152 0.0000 -195617.1473 19740.4447 200.0637 0.0000 0.0000 -171975.1354 0.0000 -171975.1354 -171975.1354 0.0000 15165.5748 -5448.5040 534946.2959 15165.5748 -5448.5040
ENERGY: 580 576.0329 767.7460 2880.2713 0.0000 -196336.5278 20080.7388 196.6402 0.0000 0.0000 -171835.0987 0.0000 -171835.0987 -171835.0987 0.0000 15351.1484 -5363.1414 534946.2959 15351.1484 -5363.1414
ENERGY: 600 164.7036 698.8468 2891.4640 0.0000 -196805.5000 20291.0456 199.8617 0.0000 0.0000 -172559.5784 0.0000 -172559.5784 -172559.5784 0.0000 15546.1384 -5208.7774 534946.2959 15546.1384 -5208.7774
TCL: Setting parameter constraintScaling to 0.15625
TCL: Minimizing for 100 steps
ETITLE: TS BOND ANGLE DIHED IMPRP ELECT VDW BOUNDARY MISC KINETIC TOTAL TEMP POTENTIAL TOTAL3 TEMPAVG PRESSURE GPRESSURE VOLUME PRESSAVG GPRESSAVG
ENERGY: 600 164.7036 698.8468 2891.4640 0.0000 -196805.5000 20291.0456 99.9308 0.0000 0.0000 -172659.5092 0.0000 -172659.5092 -172659.5092 0.0000 15663.5950 -26872.5640 534946.2959 15663.5950 -26872.5640
ENERGY: 620 163.6897 654.3452 2871.7896 0.0000 -196994.6507 20291.6625 106.7267 0.0000 0.0000 -172906.4370 0.0000 -172906.4370 -172906.4370 0.0000 15591.5232 -5181.8298 534946.2959 15591.5232 -5181.8298
ENERGY: 640 169.4850 682.9398 2869.7560 0.0000 -197322.8169 20380.8440 119.4196 0.0000 0.0000 -173100.3726 0.0000 -173100.3726 -173100.3726 0.0000 15543.6651 -5265.2524 534946.2959 15543.6651 -5265.2524
ENERGY: 660 172.1071 688.1537 2870.1914 0.0000 -197650.9251 20499.4007 127.3514 0.0000 0.0000 -173293.7207 0.0000 -173293.7207 -173293.7207 0.0000 15591.3705 -5257.8672 534946.2959 15591.3705 -5257.8672
ENERGY: 680 165.0017 662.3886 2857.0950 0.0000 -197917.4165 20617.1806 123.8670 0.0000 0.0000 -173491.8836 0.0000 -173491.8836 -173491.8836 0.0000 15681.3207 -5191.3778 534946.2959 15681.3207 -5191.3778
ENERGY: 700 171.2422 667.9839 2865.5257 0.0000 -198306.6856 20783.0222 125.4722 0.0000 0.0000 -173693.4395 0.0000 -173693.4395 -173693.4395 0.0000 15812.6702 -5107.5117 534946.2959 15812.6702 -5107.5117
TCL: Setting parameter constraintScaling to 0.078125
TCL: Minimizing for 100 steps
ETITLE: TS BOND ANGLE DIHED IMPRP ELECT VDW BOUNDARY MISC KINETIC TOTAL TEMP POTENTIAL TOTAL3 TEMPAVG PRESSURE GPRESSURE VOLUME PRESSAVG GPRESSAVG
ENERGY: 700 171.2422 667.9839 2865.5257 0.0000 -198306.6856 20783.0222 62.7361 0.0000 0.0000 -173756.1756 0.0000 -173756.1756 -173756.1756 0.0000 15879.4509 -27009.3856 534946.2959 15879.4509 -27009.3856
ENERGY: 720 235.4330 665.0188 2852.7940 0.0000 -198564.0805 20839.9168 67.2882 0.0000 0.0000 -173903.6297 0.0000 -173903.6297 -173903.6297 0.0000 15856.9736 -5104.7129 534946.2959 15856.9736 -5104.7129
ENERGY: 740 229.7947 669.6511 2853.5981 0.0000 -198975.4178 20984.0641 73.0809 0.0000 0.0000 -174165.2289 0.0000 -174165.2289 -174165.2289 0.0000 15895.2460 -5103.3591 534946.2959 15895.2460 -5103.3591
ENERGY: 760 166.7995 665.1298 2846.5116 0.0000 -199256.2514 21099.4926 73.2165 0.0000 0.0000 -174405.1015 0.0000 -174405.1015 -174405.1015 0.0000 15971.9501 -5057.2967 534946.2959 15971.9501 -5057.2967
ENERGY: 780 376.5761 693.7555 2845.7291 0.0000 -200266.2998 21481.8599 81.3648 0.0000 0.0000 -174787.0144 0.0000 -174787.0144 -174787.0144 0.0000 16146.9245 -5005.6113 534946.2959 16146.9245 -5005.6113
ENERGY: 800 210.8065 669.0645 2835.6120 0.0000 -201043.1240 21793.6467 90.6320 0.0000 0.0000 -175443.3623 0.0000 -175443.3623 -175443.3623 0.0000 16302.0174 -4939.7706 534946.2959 16302.0174 -4939.7706
TCL: Setting parameter constraintScaling to 0.0390625
TCL: Minimizing for 100 steps
ETITLE: TS BOND ANGLE DIHED IMPRP ELECT VDW BOUNDARY MISC KINETIC TOTAL TEMP POTENTIAL TOTAL3 TEMPAVG PRESSURE GPRESSURE VOLUME PRESSAVG GPRESSAVG
ENERGY: 800 210.8065 669.0645 2835.6120 0.0000 -201043.1240 21793.6467 45.3160 0.0000 0.0000 -175488.6783 0.0000 -175488.6783 -175488.6783 0.0000 16343.2963 -27198.1052 534946.2959 16343.2963 -27198.1052
ENERGY: 820 163.1230 648.5823 2834.1368 0.0000 -201166.3100 21839.8951 45.7241 0.0000 0.0000 -175634.8487 0.0000 -175634.8487 -175634.8487 0.0000 16369.1956 -4886.8792 534946.2959 16369.1956 -4886.8792
ENERGY: 840 161.5499 651.2836 2831.5193 0.0000 -201547.0117 21986.0503 47.4161 0.0000 0.0000 -175869.1926 0.0000 -175869.1926 -175869.1926 0.0000 16442.2414 -4861.2603 534946.2959 16442.2414 -4861.2603
ENERGY: 860 163.0314 651.2725 2829.4045 0.0000 -201771.1174 22063.1653 48.5848 0.0000 0.0000 -176015.6590 0.0000 -176015.6590 -176015.6590 0.0000 16476.5780 -4855.8886 534946.2959 16476.5780 -4855.8886
ENERGY: 880 169.4699 673.7369 2825.1973 0.0000 -202800.1970 22483.5228 53.5298 0.0000 0.0000 -176594.7402 0.0000 -176594.7402 -176594.7402 0.0000 16668.7863 -4780.9263 534946.2959 16668.7863 -4780.9263
ENERGY: 900 160.0598 651.2458 2823.4226 0.0000 -202941.0500 22540.4026 54.1678 0.0000 0.0000 -176711.7514 0.0000 -176711.7514 -176711.7514 0.0000 16724.7248 -4743.7237 534946.2959 16724.7248 -4743.7237
TCL: Setting parameter constraintScaling to 0.01953125
TCL: Minimizing for 100 steps
ETITLE: TS BOND ANGLE DIHED IMPRP ELECT VDW BOUNDARY MISC KINETIC TOTAL TEMP POTENTIAL TOTAL3 TEMPAVG PRESSURE GPRESSURE VOLUME PRESSAVG GPRESSAVG
ENERGY: 900 160.0598 651.2458 2823.4226 0.0000 -202941.0500 22540.4026 27.0839 0.0000 0.0000 -176738.8353 0.0000 -176738.8353 -176738.8353 0.0000 16747.8300 -27248.5125 534946.2959 16747.8300 -27248.5125
ENERGY: 920 176.0068 650.9431 2820.2251 0.0000 -203193.2285 22642.5863 27.8327 0.0000 0.0000 -176875.6345 0.0000 -176875.6345 -176875.6345 0.0000 16788.4436 -4708.7161 534946.2959 16788.4436 -4708.7161
ENERGY: 940 161.4920 651.7602 2817.6202 0.0000 -203584.7165 22805.8373 28.9666 0.0000 0.0000 -177119.0403 0.0000 -177119.0403 -177119.0403 0.0000 16868.8336 -4673.8115 534946.2959 16868.8336 -4673.8115
ENERGY: 960 165.6047 652.4956 2817.4613 0.0000 -203718.9827 22860.4694 29.2843 0.0000 0.0000 -177193.6675 0.0000 -177193.6675 -177193.6675 0.0000 16903.8129 -4655.3459 534946.2959 16903.8129 -4655.3459
ENERGY: 980 287.2837 674.8926 2818.2732 0.0000 -204189.2895 23060.8649 30.5689 0.0000 0.0000 -177317.4062 0.0000 -177317.4062 -177317.4062 0.0000 16999.4142 -4622.1925 534946.2959 16999.4142 -4622.1925
ENERGY: 1000 167.0775 654.3513 2811.3102 0.0000 -204709.4157 23292.5000 32.0857 0.0000 0.0000 -177752.0911 0.0000 -177752.0911 -177752.0911 0.0000 17111.1048 -4560.0178 534946.2959 17111.1048 -4560.0178
TCL: Setting parameter constraintScaling to 0
TCL: Minimizing for 5000 steps
ETITLE: TS BOND ANGLE DIHED IMPRP ELECT VDW BOUNDARY MISC KINETIC TOTAL TEMP POTENTIAL TOTAL3 TEMPAVG PRESSURE GPRESSURE VOLUME PRESSAVG GPRESSAVG
ENERGY: 1000 167.0775 654.3513 2811.3102 0.0000 -204709.4157 23292.5000 0.0000 0.0000 0.0000 -177784.1768 0.0000 -177784.1768 -177784.1768 0.0000 17136.9711 -27282.8392 534946.2959 17136.9711 -27282.8392
ENERGY: 2000 229.9995 690.5981 2802.9680 0.0000 -214324.9905 27528.5667 0.0000 0.0000 0.0000 -183072.8581 0.0000 -183072.8581 -183072.8581 0.0000 19373.3207 -3386.7166 534946.2959 19373.3207 -3386.7166
ENERGY: 3000 168.1457 666.1554 2794.5762 0.0000 -217419.4738 28850.4594 0.0000 0.0000 0.0000 -184940.1371 0.0000 -184940.1371 -184940.1371 0.0000 20090.5781 -2993.5915 534946.2959 20090.5781 -2993.5915
ENERGY: 4000 168.7354 668.4597 2790.7646 0.0000 -218668.2157 29376.4998 0.0000 0.0000 0.0000 -185663.7562 0.0000 -185663.7562 -185663.7562 0.0000 20378.9017 -2833.5086 534946.2959 20378.9017 -2833.5086
ENERGY: 5000 166.1883 667.0313 2784.1674 0.0000 -219486.2567 29689.8347 0.0000 0.0000 0.0000 -186179.0350 0.0000 -186179.0350 -186179.0350 0.0000 20530.8198 -2763.1984 534946.2959 20530.8198 -2763.1984
ENERGY: 6000 165.7901 667.0640 2782.6637 0.0000 -219864.2526 29851.6962 0.0000 0.0000 0.0000 -186397.0386 0.0000 -186397.0386 -186397.0386 0.0000 20618.8936 -2724.1412 534946.2959 20618.8936 -2724.1412
