Info: SIMULATION PARAMETERS:
Info: TIMESTEP               1
Info: NUMBER OF STEPS        0
Info: STEPS PER CYCLE        10
Info: PERIODIC CELL BASIS 1  72.449 0 0
Info: PERIODIC CELL BASIS 2  0 93.247 0
Info: PERIODIC CELL BASIS 3  0 0 79.185
Info: PERIODIC CELL CENTER   -0.248 -0.156 -0.047
Info: WRAPPING WATERS AROUND PERIODIC BOUNDARIES ON OUTPUT.
Info: WRAPPING ALL CLUSTERS AROUND PERIODIC BOUNDARIES ON OUTPUT.
Info: FIRST LDB TIMESTEP     50
Info: LAST LDB TIMESTEP     -1
Info: HOM BACKGROUND SCALING 1
Info: PME BACKGROUND SCALING 1
Info: MIN ATOMS PER PATCH    40
Info: VELOCITY FILE          ../replicas/rep110/equilibration/eq1.vel
Info: CENTER OF MASS MOVING INITIALLY? NO
Info: DIELECTRIC             1
Info: EXCLUDE                SCALED ONE-FOUR
Info: 1-4 ELECTROSTATICS SCALED BY 0.833333
Info: MODIFIED 1-4 VDW PARAMETERS WILL BE USED
Info: DCD FILENAME           ../replicas/rep110/equilibration/eq2.dcd
Info: DCD FREQUENCY          5000
Info: DCD FIRST STEP         5000
Info: DCD FILE WILL CONTAIN UNIT CELL DATA
Info: XST FILENAME           ../replicas/rep110/equilibration/eq2.xst
Info: XST FREQUENCY          5000
Info: NO VELOCITY DCD OUTPUT
Info: NO FORCE DCD OUTPUT
Info: OUTPUT FILENAME        ../replicas/rep110/equilibration/eq2
Info: RESTART FILENAME       ../replicas/rep110/equilibration/eq2.restart
Info: RESTART FREQUENCY      5000
Info: BINARY RESTART FILES WILL BE USED
Info: SWITCHING ACTIVE
Info: SWITCHING ON           10
Info: SWITCHING OFF          12
Info: PAIRLIST DISTANCE      13.5
Info: PAIRLIST SHRINK RATE   0.01
Info: PAIRLIST GROW RATE     0.01
Info: PAIRLIST TRIGGER       0.3
Info: PAIRLISTS PER CYCLE    2
Info: PAIRLISTS ENABLED
Info: MARGIN                 0.48
Info: HYDROGEN GROUP CUTOFF  2.5
Info: PATCH DIMENSION        16.48
Info: ENERGY OUTPUT STEPS    500
Info: CROSSTERM ENERGY INCLUDED IN DIHEDRAL
Info: TIMING OUTPUT STEPS    5000
Info: PRESSURE OUTPUT STEPS  500
Info: HARMONIC CONSTRAINTS ACTIVE
Info: HARMONIC CONS EXP      2
Info: HARMONIC CONS SCALING  10
Info: LANGEVIN DYNAMICS ACTIVE
Info: LANGEVIN TEMPERATURE   300
Info: LANGEVIN USING BBK INTEGRATOR
Info: LANGEVIN DAMPING COEFFICIENT IS 5 INVERSE PS
Info: LANGEVIN DYNAMICS NOT APPLIED TO HYDROGENS
Info: BERENDSEN PRESSURE COUPLING ACTIVE
Info:     TARGET PRESSURE IS 1 BAR
Info:     COMPRESSIBILITY ESTIMATE IS 4.57e-05 BAR^(-1)
Info:     RELAXATION TIME IS 100 FS
Info:     APPLIED EVERY 2 STEPS
Info:     PRESSURE CONTROL IS GROUP-BASED
Info:       CELL FLUCTUATION IS ISOTROPIC
Info: PARTICLE MESH EWALD (PME) ACTIVE
Info: PME TOLERANCE               1e-06
Info: PME EWALD COEFFICIENT       0.257952
Info: PME INTERPOLATION ORDER     4
Info: PME GRID DIMENSIONS         80 96 80
Info: PME MAXIMUM GRID SPACING    1
Info: FULL ELECTROSTATIC EVALUATION FREQUENCY      2
Info: USING VERLET I (r-RESPA) MTS SCHEME.
Info: C1 SPLITTING OF LONG RANGE ELECTROSTATICS
Info: PLACING ATOMS IN PATCHES BY HYDROGEN GROUPS
Info: RIGID BONDS TO HYDROGEN : WATER
Info:         ERROR TOLERANCE : 1e-05
Info:          MAX ITERATIONS : 100
Info: RIGID WATER USING SETTLE ALGORITHM
Info: RANDOM NUMBER SEED     1503701554
Info: USE HYDROGEN BONDS?    NO
Info: Using AMBER format force field!
Info: AMBER PARM FILE        ../build/complex.top
Info: COORDINATE PDB         ../replicas/rep110/equilibration/eq1.coor
Info: Exclusions in PARM file will be ignored!
Info: SCNB (VDW SCALING)     2
Info: USING ARITHMETIC MEAN TO COMBINE L-J SIGMA PARAMETERS
Info: SUMMARY OF PARAMETERS:
Info: 71 BONDS
Info: 145 ANGLES
Info: 76 DIHEDRAL
Info: 0 IMPROPER
Info: 0 CROSSTERM
Info: 0 VDW
Info: 190 VDW_PAIRS
Info: 0 NBTHOLE_PAIRS
Info: STRUCTURE SUMMARY:
Info: 49394 ATOMS
Info: 49448 BONDS
Info: 8698 ANGLES
Info: 18780 DIHEDRALS
Info: 0 IMPROPERS
Info: 0 CROSSTERMS
Info: 0 EXCLUSIONS
Info: 2336 CONSTRAINTS
Info: 44667 RIGID BONDS
Info: 103515 DEGREES OF FREEDOM
Info: 17225 HYDROGEN GROUPS
Info: 4 ATOMS IN LARGEST HYDROGEN GROUP
Info: 17225 MIGRATION GROUPS
Info: 4 ATOMS IN LARGEST MIGRATION GROUP
Info: TOTAL MASS = 301478 amu
Info: TOTAL CHARGE = 1.00115e-05 e
Info: MASS DENSITY = 0.935846 g/cm^3
Info: ATOM DENSITY = 0.0923345 atoms/A^3
Info: ADDED 70656 IMPLICIT EXCLUSIONS
Info: NONBONDED TABLE R-SQUARED SPACING: 0.0625
Info: NONBONDED TABLE SIZE: 769 POINTS
Info: REMOVING COM VELOCITY 0.0106982 -0.0227911 -0.0317715
TCL: Running for 5000 steps
ETITLE: TS BOND ANGLE DIHED IMPRP ELECT VDW BOUNDARY MISC KINETIC TOTAL TEMP POTENTIAL TOTAL3 TEMPAVG PRESSURE GPRESSURE VOLUME PRESSAVG GPRESSAVG
ENERGY: 0 388.0079 1208.0502 2895.8708 0.0000 -213082.7659 29801.1253 0.0000 0.0000 10044.2452 -168745.4665 97.6572 -178789.7117 -168735.9807 97.6572 -2269.8501 -2370.5862 534946.2959 -2269.8501 -2370.5862
ENERGY: 1000 1259.3736 1992.0125 3110.9308 0.0000 -193372.8757 26276.7666 772.3757 0.0000 24123.8127 -135837.6038 234.5487 -159961.4165 -135798.4625 219.0443 -54.0964 -18.6029 523386.4452 -3.3868 -2.9121
ENERGY: 2000 1455.8299 2095.3139 3125.5386 0.0000 -184424.8088 23518.4354 773.9939 0.0000 27800.7728 -125654.9244 270.2987 -153455.6972 -125619.4580 264.0568 -36.0439 -32.7927 515742.6444 -38.7137 -38.8632
ENERGY: 3000 1583.1926 2175.2856 3141.6198 0.0000 -179168.9777 21653.1483 788.9955 0.0000 29503.0890 -120323.6470 286.8498 -149826.7359 -120291.7000 283.9417 -25.3529 -12.3504 511122.4512 -9.6628 -9.8799
ENERGY: 4000 1547.9305 2223.4987 3113.1193 0.0000 -176873.4006 20587.9457 792.9877 0.0000 30002.1129 -118605.8058 291.7017 -148607.9188 -118563.5331 292.6572 21.9632 2.2312 507966.7880 -8.2057 -7.7151
ENERGY: 5000 1643.1602 2251.4556 3136.4820 0.0000 -176229.5360 20495.3964 818.7976 0.0000 30789.0399 -117095.2042 299.3527 -147884.2441 -117055.7390 297.2490 -56.3580 -36.4673 506190.2544 1.5445 2.2739
TCL: Setting parameter constraintScaling to 5.0
TCL: Running for 5000 steps
ETITLE: TS BOND ANGLE DIHED IMPRP ELECT VDW BOUNDARY MISC KINETIC TOTAL TEMP POTENTIAL TOTAL3 TEMPAVG PRESSURE GPRESSURE VOLUME PRESSAVG GPRESSAVG
ENERGY: 5000 1643.1602 2251.4556 3136.4820 0.0000 -176229.5360 20495.3964 409.3988 0.0000 30786.9871 -117506.6558 299.3328 -148293.6430 -117462.5756 299.3328 -184.3876 -172.4365 506190.2544 -184.3876 -172.4365
ENERGY: 6000 1619.1059 2268.9949 3187.5075 0.0000 -175552.1838 20226.5328 630.0634 0.0000 30781.5134 -116838.4658 299.2796 -147619.9793 -116795.5568 298.3459 2.3477 -39.3053 504567.7052 -4.6666 -5.1460
ENERGY: 7000 1623.5011 2281.0372 3156.9004 0.0000 -175272.0296 20018.3578 634.6548 0.0000 30831.5056 -116726.0728 299.7656 -147557.5784 -116681.3019 299.4677 13.4837 5.9790 503399.3923 1.8643 0.8245
ENERGY: 8000 1581.6749 2237.8969 3148.7184 0.0000 -175670.0535 20106.6527 649.9461 0.0000 30817.1246 -117128.0398 299.6258 -147945.1644 -117073.9227 298.6803 -17.9778 13.5857 503203.6057 5.2745 5.5581
ENERGY: 9000 1632.1733 2279.2668 3154.6646 0.0000 -175892.1872 20205.9122 661.6334 0.0000 30649.5902 -117308.9466 297.9969 -147958.5368 -117257.8906 298.3262 -92.6243 -5.6209 501507.8724 -4.2632 -4.3670
ENERGY: 10000 1519.4025 2319.7028 3150.6153 0.0000 -175733.6173 20162.6228 645.8777 0.0000 30646.6391 -117288.7570 297.9682 -147935.3961 -117236.7917 298.1050 31.8260 49.3457 500889.2830 -14.5831 -14.6248
TCL: Setting parameter constraintScaling to 2.5
TCL: Running for 5000 steps
ETITLE: TS BOND ANGLE DIHED IMPRP ELECT VDW BOUNDARY MISC KINETIC TOTAL TEMP POTENTIAL TOTAL3 TEMPAVG PRESSURE GPRESSURE VOLUME PRESSAVG GPRESSAVG
ENERGY: 10000 1519.4025 2319.7028 3150.6153 0.0000 -175733.6173 20162.6228 322.9389 0.0000 30644.6020 -117613.7330 297.9484 -148258.3350 -117567.6551 297.9484 2.2913 19.4782 500889.2830 2.2913 19.4782
ENERGY: 11000 1592.7835 2322.0667 3187.7028 0.0000 -175708.8551 19876.0775 492.7452 0.0000 30733.9248 -117503.5546 298.8169 -148237.4794 -117462.9724 297.5519 -42.6307 -8.7706 500446.5999 -8.4440 -8.7097
ENERGY: 12000 1622.3861 2357.5137 3155.9040 0.0000 -175254.0804 20019.4617 501.0850 0.0000 30737.6584 -116860.0716 298.8532 -147597.7299 -116821.1985 298.4315 -29.5087 -39.7990 501209.9464 -2.8361 -2.9762
ENERGY: 13000 1631.7152 2326.3585 3166.2907 0.0000 -175422.4176 20039.1943 516.0696 0.0000 30764.7772 -116978.0120 299.1168 -147742.7893 -116935.2795 299.6132 85.4893 82.4477 500941.0422 11.2769 11.6950
ENERGY: 14000 1603.1724 2315.5435 3164.9888 0.0000 -175493.1902 19966.5719 534.3798 0.0000 30761.4865 -117147.0472 299.0849 -147908.5338 -117104.8743 299.7470 -59.5787 -17.0518 500785.3060 -9.3588 -9.1546
ENERGY: 15000 1633.8185 2361.0895 3148.5329 0.0000 -175739.2061 20296.7197 501.7505 0.0000 30803.0379 -116994.2572 299.4888 -147797.2950 -116953.3155 300.5725 -86.7093 -40.1822 500936.5521 -10.4632 -10.3833
TCL: Setting parameter constraintScaling to 1.25
TCL: Running for 5000 steps
ETITLE: TS BOND ANGLE DIHED IMPRP ELECT VDW BOUNDARY MISC KINETIC TOTAL TEMP POTENTIAL TOTAL3 TEMPAVG PRESSURE GPRESSURE VOLUME PRESSAVG GPRESSAVG
ENERGY: 15000 1633.8185 2361.0895 3148.5329 0.0000 -175739.2061 20296.7197 250.8752 0.0000 30800.9815 -117247.1888 299.4688 -148048.1703 -117200.0920 299.4688 -55.4098 -9.3192 500936.5521 -55.4098 -9.3192
ENERGY: 16000 1656.5328 2394.7071 3194.1074 0.0000 -175849.9216 20102.3708 377.6283 0.0000 30659.0226 -117465.5525 298.0886 -148124.5751 -117420.4340 298.9511 -111.9675 2.0951 500019.6061 1.5650 1.5101
ENERGY: 17000 1605.6171 2345.1991 3199.0975 0.0000 -175600.1415 20028.8685 390.3677 0.0000 30912.1571 -117118.8346 300.5498 -148030.9917 -117066.6450 300.0715 -174.0733 -38.1311 500438.7821 9.4368 9.5685
ENERGY: 18000 1643.4941 2308.2876 3197.2495 0.0000 -175550.2394 20075.4945 400.7598 0.0000 30881.3776 -117043.5764 300.2505 -147924.9540 -117000.2259 299.7404 -11.4419 -16.9101 500950.3360 11.8868 11.6414
ENERGY: 19000 1587.3097 2431.4918 3191.3409 0.0000 -175525.9372 20016.4114 393.6515 0.0000 30714.3797 -117191.3522 298.6268 -147905.7318 -117144.6967 299.6335 -35.3889 16.2733 499446.0100 -3.4706 -3.9773
ENERGY: 20000 1679.4210 2349.7102 3200.2430 0.0000 -175779.4232 20141.8546 401.8066 0.0000 30868.3999 -117137.9878 300.1243 -148006.3878 -117085.4587 300.0802 -119.1470 19.4366 499247.5376 1.4049 1.5737
TCL: Setting parameter constraintScaling to 0.625
TCL: Running for 5000 steps
ETITLE: TS BOND ANGLE DIHED IMPRP ELECT VDW BOUNDARY MISC KINETIC TOTAL TEMP POTENTIAL TOTAL3 TEMPAVG PRESSURE GPRESSURE VOLUME PRESSAVG GPRESSAVG
ENERGY: 20000 1679.4210 2349.7102 3200.2430 0.0000 -175779.4232 20141.8546 200.9033 0.0000 30866.3795 -117340.9116 300.1047 -148207.2911 -117295.7494 300.1047 -177.5176 -50.9274 499247.5376 -177.5176 -50.9274
ENERGY: 21000 1610.3348 2310.6454 3207.8704 0.0000 -175786.6307 19958.9808 300.4664 0.0000 30813.9327 -117584.4001 299.5948 -148398.3328 -117538.6032 299.4298 -67.7795 -73.2106 497424.2463 8.6404 9.0023
ENERGY: 22000 1678.8864 2388.6940 3209.5754 0.0000 -175968.9927 20078.7949 314.1881 0.0000 30574.3773 -117724.4766 297.2656 -148298.8539 -117688.3630 298.5760 -135.9295 -7.5581 496678.6083 -0.7769 0.0795
ENERGY: 23000 1601.6406 2371.3493 3188.6048 0.0000 -175998.2588 20175.7566 330.1552 0.0000 30680.2330 -117650.5193 298.2948 -148330.7523 -117603.3487 299.6074 60.9313 22.1286 496529.0942 0.3389 0.4455
ENERGY: 24000 1650.1804 2353.7021 3173.6396 0.0000 -176149.0278 20179.8900 324.7390 0.0000 31139.8887 -117326.9879 302.7639 -148466.8766 -117277.1767 299.8580 -240.4689 -152.5150 497993.8222 -5.8796 -5.2683
ENERGY: 25000 1666.7237 2397.0651 3203.6980 0.0000 -176247.6686 20272.7513 334.5063 0.0000 30996.2393 -117376.6848 301.3673 -148372.9241 -117340.4225 299.6127 -66.8223 -13.0095 498096.2790 4.0433 3.7083
TCL: Setting parameter constraintScaling to 0.3125
TCL: Running for 5000 steps
ETITLE: TS BOND ANGLE DIHED IMPRP ELECT VDW BOUNDARY MISC KINETIC TOTAL TEMP POTENTIAL TOTAL3 TEMPAVG PRESSURE GPRESSURE VOLUME PRESSAVG GPRESSAVG
ENERGY: 25000 1666.7237 2397.0651 3203.6980 0.0000 -176247.6686 20272.7513 167.2532 0.0000 30994.1957 -117545.9815 301.3474 -148540.1772 -117505.6568 301.3474 -93.0586 -33.2019 498096.2790 -93.0586 -33.2019
ENERGY: 26000 1628.0551 2393.1500 3186.9435 0.0000 -176394.7314 20167.2990 230.1565 0.0000 30828.9741 -117960.1531 299.7410 -148789.1273 -117914.0125 298.2750 38.4438 40.1394 497384.8391 -2.9183 -3.3353
ENERGY: 27000 1686.0048 2419.3110 3171.2757 0.0000 -176200.8585 20293.6136 252.7236 0.0000 30868.9700 -117508.9599 300.1299 -148377.9299 -117467.2492 298.6653 -45.4195 -1.7103 496800.3788 0.8186 0.2965
ENERGY: 28000 1592.5515 2422.4129 3191.2868 0.0000 -175763.9721 20035.5409 249.6099 0.0000 30911.8306 -117360.7395 300.5466 -148272.5701 -117310.9728 300.2531 -6.5358 -5.4927 498432.7600 -2.3519 -1.8402
ENERGY: 29000 1624.9201 2386.5651 3217.7694 0.0000 -175525.4694 20026.9365 250.0597 0.0000 30876.4566 -117142.7620 300.2027 -148019.2186 -117105.7219 300.1963 -13.5240 -0.1738 497457.2847 -6.2878 -6.6068
ENERGY: 30000 1706.2765 2406.7469 3226.2284 0.0000 -176086.5218 20169.7735 249.4000 0.0000 30836.4214 -117491.6750 299.8134 -148328.0964 -117432.1978 299.7287 17.9883 -0.1894 497233.9347 -7.1519 -7.4025
TCL: Setting parameter constraintScaling to 0.15625
TCL: Running for 5000 steps
ETITLE: TS BOND ANGLE DIHED IMPRP ELECT VDW BOUNDARY MISC KINETIC TOTAL TEMP POTENTIAL TOTAL3 TEMPAVG PRESSURE GPRESSURE VOLUME PRESSAVG GPRESSAVG
ENERGY: 30000 1706.2765 2406.7469 3226.2284 0.0000 -176086.5218 20169.7735 124.7000 0.0000 30834.3858 -117618.4106 299.7936 -148452.7964 -117577.9691 299.7936 -9.7321 -26.7197 497233.9347 -9.7321 -26.7197
ENERGY: 31000 1639.3547 2430.0028 3224.8817 0.0000 -175891.2008 20056.9722 183.0742 0.0000 30773.1102 -117583.8051 299.1979 -148356.9152 -117542.7836 299.0601 95.2468 12.1574 498143.5937 5.2221 4.8747
ENERGY: 32000 1685.2486 2408.7134 3206.5050 0.0000 -175763.0289 20052.2612 184.6010 0.0000 30877.5405 -117348.1593 300.2132 -148225.6998 -117312.6445 299.6470 -48.1263 -22.9890 498496.6924 -5.1417 -4.5343
ENERGY: 33000 1629.0410 2432.8686 3208.5108 0.0000 -175853.6181 20044.8093 190.6112 0.0000 30598.6929 -117749.0843 297.5021 -148347.7772 -117703.4449 299.1559 -38.6908 -7.7873 498924.5291 -4.4988 -5.1832
ENERGY: 34000 1618.4620 2444.6292 3194.6194 0.0000 -175861.8346 19981.9111 199.0272 0.0000 30850.8620 -117572.3237 299.9538 -148423.1858 -117537.5991 300.2975 -64.3863 -59.0365 496462.4708 -0.8440 -0.6418
ENERGY: 35000 1617.2647 2453.4460 3197.8213 0.0000 -176037.1332 20068.5178 194.5034 0.0000 30740.6652 -117764.9149 298.8824 -148505.5801 -117714.6769 298.4253 -52.0718 10.7282 496169.7743 -2.4814 -2.8679
TCL: Setting parameter constraintScaling to 0.078125
TCL: Running for 5000 steps
ETITLE: TS BOND ANGLE DIHED IMPRP ELECT VDW BOUNDARY MISC KINETIC TOTAL TEMP POTENTIAL TOTAL3 TEMPAVG PRESSURE GPRESSURE VOLUME PRESSAVG GPRESSAVG
ENERGY: 35000 1617.2647 2453.4460 3197.8213 0.0000 -176037.1332 20068.5178 97.2517 0.0000 30738.6464 -117864.1854 298.8628 -148602.8318 -117823.0261 298.8628 -41.7031 17.4906 496169.7743 -41.7031 17.4906
ENERGY: 36000 1634.0728 2444.8432 3222.3017 0.0000 -175775.8255 20029.2190 149.8355 0.0000 30966.6230 -117328.9304 301.0793 -148295.5533 -117287.5594 299.8700 -5.3525 -28.5752 497424.3066 -5.7214 -5.9568
ENERGY: 37000 1637.5735 2384.1612 3214.7365 0.0000 -176663.5364 20445.9617 153.4945 0.0000 30951.7979 -117875.8110 300.9352 -148827.6089 -117828.6748 299.9950 -20.2477 14.6884 497413.2071 10.7763 10.4225
ENERGY: 38000 1665.5404 2442.0354 3209.5264 0.0000 -176191.6804 20200.8554 154.8318 0.0000 30855.4820 -117663.4089 299.9987 -148518.8909 -117608.8203 299.5096 5.5849 -14.7810 496466.7151 1.4395 1.4285
ENERGY: 39000 1641.8841 2481.7825 3206.2827 0.0000 -176236.9823 20177.3309 165.3476 0.0000 30741.7286 -117822.6259 298.8928 -148564.3546 -117782.0968 299.0910 -4.9135 17.3687 496109.2805 -4.9711 -4.6870
ENERGY: 40000 1577.2690 2405.6036 3209.0377 0.0000 -176047.8442 19916.7662 154.4649 0.0000 30806.3473 -117978.3555 299.5210 -148784.7028 -117932.2056 298.0941 57.2888 -37.0790 495546.7882 0.1655 0.4905
TCL: Setting parameter constraintScaling to 0.0390625
TCL: Running for 5000 steps
ETITLE: TS BOND ANGLE DIHED IMPRP ELECT VDW BOUNDARY MISC KINETIC TOTAL TEMP POTENTIAL TOTAL3 TEMPAVG PRESSURE GPRESSURE VOLUME PRESSAVG GPRESSAVG
ENERGY: 40000 1577.2690 2405.6036 3209.0377 0.0000 -176047.8442 19916.7662 77.2324 0.0000 30804.2840 -118057.6513 299.5010 -148861.9353 -118013.5729 299.5010 45.2180 -47.7581 495546.7882 45.2180 -47.7581
ENERGY: 41000 1653.3994 2399.9956 3230.6258 0.0000 -176228.6164 20135.3529 102.3294 0.0000 30656.1843 -118050.7290 298.0610 -148706.9133 -118011.6629 298.4288 76.1349 6.7207 495706.2511 3.8743 3.8035
ENERGY: 42000 1577.6686 2363.6223 3216.4269 0.0000 -176184.8562 20148.6716 102.9298 0.0000 30771.9010 -118003.6359 299.1861 -148775.5369 -117958.0232 298.6375 27.1397 -44.0373 496332.8552 1.8208 1.4329
ENERGY: 43000 1659.9674 2339.8846 3211.2548 0.0000 -175949.9925 20016.4575 117.1692 0.0000 30740.2773 -117864.9817 298.8786 -148605.2590 -117821.2617 298.7421 -47.6854 23.2223 496078.3390 8.2303 8.0602
ENERGY: 44000 1578.4380 2390.4081 3196.9861 0.0000 -176320.3490 20088.0043 114.8546 0.0000 30631.1353 -118320.5227 297.8175 -148951.6580 -118275.7223 298.4908 24.7595 74.2950 495739.0572 -7.2344 -7.0543
ENERGY: 45000 1663.5456 2391.9421 3203.0187 0.0000 -176047.6402 19974.9534 122.0939 0.0000 30863.5644 -117828.5222 300.0773 -148692.0865 -117789.2467 299.0628 28.3752 -7.6265 495325.7525 2.4491 2.2247
TCL: Setting parameter constraintScaling to 0.01953125
TCL: Running for 5000 steps
ETITLE: TS BOND ANGLE DIHED IMPRP ELECT VDW BOUNDARY MISC KINETIC TOTAL TEMP POTENTIAL TOTAL3 TEMPAVG PRESSURE GPRESSURE VOLUME PRESSAVG GPRESSAVG
ENERGY: 45000 1663.5456 2391.9421 3203.0187 0.0000 -176047.6402 19974.9534 61.0470 0.0000 30861.5169 -117891.6166 300.0574 -148753.1335 -117847.4560 300.0574 22.2628 -18.1271 495325.7525 22.2628 -18.1271
ENERGY: 46000 1571.5902 2468.5865 3232.4730 0.0000 -175475.8269 19776.4312 73.5640 0.0000 30556.1072 -117797.0749 297.0880 -148353.1820 -117752.7975 299.5124 -63.8126 16.0110 495900.9482 14.3346 14.8893
ENERGY: 47000 1657.1447 2457.6906 3208.4666 0.0000 -175996.9541 20151.8661 86.6593 0.0000 30696.5258 -117738.6010 298.4533 -148435.1268 -117694.6521 299.0777 -131.4772 -57.4325 496405.8872 12.8784 12.6541
ENERGY: 48000 1638.9672 2387.9830 3193.2840 0.0000 -175740.0814 20088.0125 87.3484 0.0000 30732.2245 -117612.2619 298.8003 -148344.4863 -117569.0208 299.6241 39.1471 40.7389 497345.0821 -0.1680 -0.1628
ENERGY: 49000 1689.3347 2416.1351 3190.0941 0.0000 -175807.3655 20061.4682 88.0280 0.0000 30821.5429 -117540.7626 299.6688 -148362.3054 -117508.8128 299.9291 -71.0857 74.5072 497182.1513 0.8259 0.9859
ENERGY: 50000 1669.4149 2387.2407 3205.4759 0.0000 -176040.6142 20071.9302 95.9756 0.0000 30799.5863 -117810.9905 299.4553 -148610.5768 -117769.4089 299.4953 -130.4508 7.2147 496759.0190 -20.2165 -20.0540
TCL: Setting parameter constraintScaling to 0
TCL: Running for 5000 steps
ETITLE: TS BOND ANGLE DIHED IMPRP ELECT VDW BOUNDARY MISC KINETIC TOTAL TEMP POTENTIAL TOTAL3 TEMPAVG PRESSURE GPRESSURE VOLUME PRESSAVG GPRESSAVG
ENERGY: 50000 1669.4149 2387.2407 3205.4759 0.0000 -176040.6142 20071.9302 0.0000 0.0000 30797.5425 -117909.0099 299.4354 -148706.5525 -117864.9577 299.4354 -161.9943 -21.1681 496759.0190 -161.9943 -21.1681
ENERGY: 51000 1637.5110 2439.3621 3205.1423 0.0000 -176007.2118 20070.4315 0.0000 0.0000 30743.9171 -117910.8478 298.9140 -148654.7648 -117859.6469 299.7125 -7.2480 -8.2911 496125.3931 -2.3854 -2.3803
ENERGY: 52000 1616.6322 2374.6323 3196.8792 0.0000 -175898.9803 19893.1228 0.0000 0.0000 30616.8501 -118200.8636 297.6786 -148817.7138 -118162.8907 298.5301 -67.5412 -84.6431 495650.4403 -5.7424 -5.7878
ENERGY: 53000 1683.8329 2326.4804 3205.6977 0.0000 -176386.4909 20131.8359 0.0000 0.0000 30846.1374 -118192.5066 299.9079 -149038.6439 -118146.3874 298.9322 57.5242 -9.3035 495767.2455 3.9648 3.9921
ENERGY: 54000 1641.3977 2397.0010 3205.3696 0.0000 -175904.6236 19849.8112 0.0000 0.0000 30793.3751 -118017.6689 299.3949 -148811.0440 -117977.3211 299.7892 91.9131 66.6055 494963.7683 5.0935 4.6459
ENERGY: 55000 1602.0986 2454.1201 3201.7084 0.0000 -176114.6972 20058.4133 0.0000 0.0000 31025.6938 -117772.6630 301.6537 -148798.3568 -117731.0366 300.4758 21.8404 61.1538 497062.7442 6.8513 6.2938
