Info: SIMULATION PARAMETERS:
Info: TIMESTEP               1
Info: NUMBER OF STEPS        0
Info: STEPS PER CYCLE        10
Info: PERIODIC CELL BASIS 1  72.449 0 0
Info: PERIODIC CELL BASIS 2  0 93.247 0
Info: PERIODIC CELL BASIS 3  0 0 79.185
Info: PERIODIC CELL CENTER   -0.248 -0.156 -0.047
Info: WRAPPING WATERS AROUND PERIODIC BOUNDARIES ON OUTPUT.
Info: WRAPPING ALL CLUSTERS AROUND PERIODIC BOUNDARIES ON OUTPUT.
Info: FIRST LDB TIMESTEP     50
Info: LAST LDB TIMESTEP     -1
Info: HOM BACKGROUND SCALING 1
Info: PME BACKGROUND SCALING 1
Info: MIN ATOMS PER PATCH    40
Info: VELOCITY FILE          ../replicas/rep13/equilibration/eq1.vel
Info: CENTER OF MASS MOVING INITIALLY? NO
Info: DIELECTRIC             1
Info: EXCLUDE                SCALED ONE-FOUR
Info: 1-4 ELECTROSTATICS SCALED BY 0.833333
Info: MODIFIED 1-4 VDW PARAMETERS WILL BE USED
Info: DCD FILENAME           ../replicas/rep13/equilibration/eq2.dcd
Info: DCD FREQUENCY          5000
Info: DCD FIRST STEP         5000
Info: DCD FILE WILL CONTAIN UNIT CELL DATA
Info: XST FILENAME           ../replicas/rep13/equilibration/eq2.xst
Info: XST FREQUENCY          5000
Info: NO VELOCITY DCD OUTPUT
Info: NO FORCE DCD OUTPUT
Info: OUTPUT FILENAME        ../replicas/rep13/equilibration/eq2
Info: RESTART FILENAME       ../replicas/rep13/equilibration/eq2.restart
Info: RESTART FREQUENCY      5000
Info: BINARY RESTART FILES WILL BE USED
Info: SWITCHING ACTIVE
Info: SWITCHING ON           10
Info: SWITCHING OFF          12
Info: PAIRLIST DISTANCE      13.5
Info: PAIRLIST SHRINK RATE   0.01
Info: PAIRLIST GROW RATE     0.01
Info: PAIRLIST TRIGGER       0.3
Info: PAIRLISTS PER CYCLE    2
Info: PAIRLISTS ENABLED
Info: MARGIN                 0.48
Info: HYDROGEN GROUP CUTOFF  2.5
Info: PATCH DIMENSION        16.48
Info: ENERGY OUTPUT STEPS    500
Info: CROSSTERM ENERGY INCLUDED IN DIHEDRAL
Info: TIMING OUTPUT STEPS    5000
Info: PRESSURE OUTPUT STEPS  500
Info: HARMONIC CONSTRAINTS ACTIVE
Info: HARMONIC CONS EXP      2
Info: HARMONIC CONS SCALING  10
Info: LANGEVIN DYNAMICS ACTIVE
Info: LANGEVIN TEMPERATURE   300
Info: LANGEVIN USING BBK INTEGRATOR
Info: LANGEVIN DAMPING COEFFICIENT IS 5 INVERSE PS
Info: LANGEVIN DYNAMICS NOT APPLIED TO HYDROGENS
Info: BERENDSEN PRESSURE COUPLING ACTIVE
Info:     TARGET PRESSURE IS 1 BAR
Info:     COMPRESSIBILITY ESTIMATE IS 4.57e-05 BAR^(-1)
Info:     RELAXATION TIME IS 100 FS
Info:     APPLIED EVERY 2 STEPS
Info:     PRESSURE CONTROL IS GROUP-BASED
Info:       CELL FLUCTUATION IS ISOTROPIC
Info: PARTICLE MESH EWALD (PME) ACTIVE
Info: PME TOLERANCE               1e-06
Info: PME EWALD COEFFICIENT       0.257952
Info: PME INTERPOLATION ORDER     4
Info: PME GRID DIMENSIONS         80 96 80
Info: PME MAXIMUM GRID SPACING    1
Info: FULL ELECTROSTATIC EVALUATION FREQUENCY      2
Info: USING VERLET I (r-RESPA) MTS SCHEME.
Info: C1 SPLITTING OF LONG RANGE ELECTROSTATICS
Info: PLACING ATOMS IN PATCHES BY HYDROGEN GROUPS
Info: RIGID BONDS TO HYDROGEN : WATER
Info:         ERROR TOLERANCE : 1e-05
Info:          MAX ITERATIONS : 100
Info: RIGID WATER USING SETTLE ALGORITHM
Info: RANDOM NUMBER SEED     1503252787
Info: USE HYDROGEN BONDS?    NO
Info: Using AMBER format force field!
Info: AMBER PARM FILE        ../build/complex.top
Info: COORDINATE PDB         ../replicas/rep13/equilibration/eq1.coor
Info: Exclusions in PARM file will be ignored!
Info: SCNB (VDW SCALING)     2
Info: USING ARITHMETIC MEAN TO COMBINE L-J SIGMA PARAMETERS
Info: SUMMARY OF PARAMETERS:
Info: 71 BONDS
Info: 145 ANGLES
Info:   145 HARMONIC
Info:   0 COSINE-BASED
Info: 76 DIHEDRAL
Info: 0 IMPROPER
Info: 0 CROSSTERM
Info: 0 VDW
Info: 190 VDW_PAIRS
Info: 0 NBTHOLE_PAIRS
Info: STRUCTURE SUMMARY:
Info: 49394 ATOMS
Info: 49448 BONDS
Info: 8698 ANGLES
Info: 18780 DIHEDRALS
Info: 0 IMPROPERS
Info: 0 CROSSTERMS
Info: 0 EXCLUSIONS
Info: 2336 CONSTRAINTS
Info: 44667 RIGID BONDS
Info: 103515 DEGREES OF FREEDOM
Info: 17225 HYDROGEN GROUPS
Info: 4 ATOMS IN LARGEST HYDROGEN GROUP
Info: 17225 MIGRATION GROUPS
Info: 4 ATOMS IN LARGEST MIGRATION GROUP
Info: TOTAL MASS = 301478 amu
Info: TOTAL CHARGE = 1.00115e-05 e
Info: MASS DENSITY = 0.935846 g/cm^3
Info: ATOM DENSITY = 0.0923345 atoms/A^3
Info: ADDED 70656 IMPLICIT EXCLUSIONS
Info: NONBONDED TABLE R-SQUARED SPACING: 0.0625
Info: NONBONDED TABLE SIZE: 769 POINTS
Info: REMOVING COM VELOCITY -0.0105505 0.00793538 0.0201328
TCL: Running for 5000 steps
ETITLE: TS BOND ANGLE DIHED IMPRP ELECT VDW BOUNDARY MISC KINETIC TOTAL TEMP POTENTIAL TOTAL3 TEMPAVG PRESSURE GPRESSURE VOLUME PRESSAVG GPRESSAVG
ENERGY: 0 396.6290 1230.6905 2920.7252 0.0000 -212855.2748 29742.2040 0.0000 0.0000 10026.4920 -168538.5341 97.4846 -178565.0261 -168528.8814 97.4846 -2237.8195 -2333.3758 534946.2959 -2237.8195 -2333.3758
ENERGY: 1000 1277.0750 1964.6909 3101.3062 0.0000 -193081.8490 26165.0938 814.9897 0.0000 24031.3976 -135727.2958 233.6502 -159758.6934 -135702.9337 219.0123 -43.4591 -16.2150 522329.0094 -12.6404 -12.4095
ENERGY: 2000 1450.0869 2178.3389 3134.5313 0.0000 -184045.9971 23341.6875 796.3097 0.0000 27896.0383 -125249.0046 271.2249 -153145.0428 -125204.6177 264.5114 -18.2362 -16.3293 514617.7898 -41.4024 -41.6356
ENERGY: 3000 1554.5011 2269.1116 3153.2796 0.0000 -179182.6916 21623.8639 824.2911 0.0000 29665.4858 -120092.1586 288.4288 -149757.6444 -120060.9071 285.8607 -78.9204 0.0572 510061.9235 -24.3868 -24.5975
ENERGY: 4000 1572.7255 2254.9071 3164.1288 0.0000 -177239.9113 21016.4251 845.9881 0.0000 30310.4203 -118075.3163 294.6993 -148385.7366 -118021.0501 293.8251 -106.7289 12.2076 507478.2341 -14.6485 -14.7250
ENERGY: 5000 1605.8861 2195.6244 3115.5395 0.0000 -175428.1555 20152.5184 795.6560 0.0000 30539.8933 -117023.0378 296.9304 -147562.9310 -116972.3080 297.4648 103.5494 10.2354 505031.7695 -2.6293 -2.9602
TCL: Setting parameter constraintScaling to 5.0
TCL: Running for 5000 steps
ETITLE: TS BOND ANGLE DIHED IMPRP ELECT VDW BOUNDARY MISC KINETIC TOTAL TEMP POTENTIAL TOTAL3 TEMPAVG PRESSURE GPRESSURE VOLUME PRESSAVG GPRESSAVG
ENERGY: 5000 1605.8861 2195.6244 3115.5395 0.0000 -175428.1555 20152.5184 397.8280 0.0000 30537.8577 -117422.9013 296.9106 -147960.7590 -117378.9808 296.9106 -4.4556 -99.1423 505031.7695 -4.4556 -99.1423
ENERGY: 6000 1618.3537 2339.3675 3199.3107 0.0000 -176077.9241 20465.9044 635.2461 0.0000 30780.9476 -117038.7939 299.2741 -147819.7416 -116986.5655 297.3864 -14.7608 -13.4478 499912.5516 -19.3225 -19.2651
ENERGY: 7000 1665.1710 2279.5075 3140.2016 0.0000 -175607.3492 19973.2960 659.0660 0.0000 30900.8903 -116989.2168 300.4402 -147890.1071 -116937.5259 299.5187 -64.7059 -14.2876 501656.9298 1.3296 1.4430
ENERGY: 8000 1572.7970 2333.6630 3187.7001 0.0000 -175562.7921 19940.3543 634.7696 0.0000 31046.1708 -116847.3373 301.8528 -147893.5081 -116797.0234 299.7832 -88.3125 -5.3840 502092.2706 7.2446 6.8488
ENERGY: 9000 1625.8535 2267.3846 3168.0344 0.0000 -176120.2388 20354.4015 644.4001 0.0000 30939.8320 -117120.3327 300.8189 -148060.1647 -117080.8299 298.6359 -85.5103 -76.7584 500881.7864 -2.8390 -2.2620
ENERGY: 10000 1632.7982 2339.1353 3182.0149 0.0000 -175464.0582 20103.3407 673.8703 0.0000 30775.6869 -116757.2120 299.2229 -147532.8988 -116712.7476 299.7938 23.6350 10.1121 501805.2243 -0.1773 0.6123
TCL: Setting parameter constraintScaling to 2.5
TCL: Running for 5000 steps
ETITLE: TS BOND ANGLE DIHED IMPRP ELECT VDW BOUNDARY MISC KINETIC TOTAL TEMP POTENTIAL TOTAL3 TEMPAVG PRESSURE GPRESSURE VOLUME PRESSAVG GPRESSAVG
ENERGY: 10000 1632.7982 2339.1353 3182.0149 0.0000 -175464.0582 20103.3407 336.9352 0.0000 30773.6145 -117096.2195 299.2028 -147869.8340 -117053.7121 299.2028 -51.4218 -61.3897 501805.2243 -51.4218 -61.3897
ENERGY: 11000 1616.9218 2318.6921 3161.2259 0.0000 -175849.6357 20249.2675 506.6359 0.0000 30667.1573 -117329.7354 298.1677 -147996.8926 -117284.6574 299.2913 -35.6209 -6.0738 500711.6456 -1.0608 -1.7296
ENERGY: 12000 1688.8647 2303.2900 3162.4431 0.0000 -176052.5184 20167.7413 528.6893 0.0000 30537.2913 -117664.1987 296.9051 -148201.4901 -117627.1094 298.3270 7.5255 23.1113 500870.6633 6.6664 6.4397
ENERGY: 13000 1607.4450 2376.1238 3185.2883 0.0000 -175462.1323 19862.7653 483.6105 0.0000 30758.0706 -117188.8288 299.0516 -147946.8994 -117151.0367 299.4569 -50.5643 -15.2477 500457.4672 2.5370 2.5488
ENERGY: 14000 1690.6521 2377.9468 3186.7396 0.0000 -175764.7475 20124.8960 493.2289 0.0000 30596.6633 -117294.6208 297.4823 -147891.2841 -117249.9915 299.2743 -18.5283 24.1921 499346.7305 -5.2371 -4.1039
ENERGY: 15000 1605.7557 2340.0491 3140.0598 0.0000 -175441.1740 20015.9659 484.7429 0.0000 30751.7722 -117102.8284 298.9904 -147854.6006 -117051.9442 298.5185 -64.5292 -54.6610 500920.4666 2.7705 2.9654
TCL: Setting parameter constraintScaling to 1.25
TCL: Running for 5000 steps
ETITLE: TS BOND ANGLE DIHED IMPRP ELECT VDW BOUNDARY MISC KINETIC TOTAL TEMP POTENTIAL TOTAL3 TEMPAVG PRESSURE GPRESSURE VOLUME PRESSAVG GPRESSAVG
ENERGY: 15000 1605.7557 2340.0491 3140.0598 0.0000 -175441.1740 20015.9659 242.3714 0.0000 30749.7217 -117347.2503 298.9705 -148096.9721 -117308.9718 298.9705 -73.9192 -60.1443 500920.4666 -73.9192 -60.1443
ENERGY: 16000 1604.5231 2322.1570 3219.4717 0.0000 -175634.1473 20145.9079 423.6422 0.0000 30660.2538 -117258.1916 298.1006 -147918.4454 -117217.6374 299.7788 34.5679 72.4370 500193.7766 4.4863 4.6113
ENERGY: 17000 1613.6731 2343.8679 3202.3647 0.0000 -176297.2719 20311.6561 396.5737 0.0000 30904.1808 -117524.9556 300.4722 -148429.1364 -117472.7856 298.7131 -46.1526 31.0288 498513.2932 -6.4449 -6.2110
ENERGY: 18000 1596.3047 2396.6689 3210.6766 0.0000 -176043.9111 20180.8762 410.4699 0.0000 30776.8860 -117472.0288 299.2346 -148248.9148 -117419.5044 298.4983 -99.4305 -73.2722 497173.4305 -7.0466 -6.6460
ENERGY: 19000 1664.0539 2328.1053 3203.5520 0.0000 -175754.9009 20005.5074 391.6881 0.0000 30643.8958 -117518.0985 297.9416 -148161.9943 -117464.1818 299.1991 -99.3355 -10.2649 498759.5502 1.2940 1.7045
ENERGY: 20000 1590.2093 2359.6159 3194.3895 0.0000 -175930.4239 20185.2059 398.9424 0.0000 30837.0450 -117365.0159 299.8195 -148202.0609 -117323.6544 299.2392 61.2544 39.2325 498472.5442 -1.5972 -1.4158
TCL: Setting parameter constraintScaling to 0.625
TCL: Running for 5000 steps
ETITLE: TS BOND ANGLE DIHED IMPRP ELECT VDW BOUNDARY MISC KINETIC TOTAL TEMP POTENTIAL TOTAL3 TEMPAVG PRESSURE GPRESSURE VOLUME PRESSAVG GPRESSAVG
ENERGY: 20000 1590.2093 2359.6159 3194.3895 0.0000 -175930.4239 20185.2059 199.4712 0.0000 30834.9878 -117566.5443 299.7995 -148401.5321 -117520.8637 299.7995 36.4323 23.7187 498472.5442 36.4323 23.7187
ENERGY: 21000 1608.0844 2450.7818 3217.7026 0.0000 -175586.9490 19932.3101 341.0127 0.0000 30593.9105 -117443.1469 297.4556 -148037.0575 -117386.4325 299.2172 -104.3959 -2.1441 496728.4924 -25.7286 -25.7357
ENERGY: 22000 1622.5343 2386.7035 3187.9118 0.0000 -175945.4861 20366.6965 308.6510 0.0000 31050.8024 -117022.1866 301.8978 -148072.9890 -116975.1194 300.3635 43.0420 -0.5782 499384.1394 18.0744 17.8054
ENERGY: 23000 1663.0035 2379.4875 3229.7247 0.0000 -175578.2785 19960.3575 312.3594 0.0000 30767.1638 -117266.1820 299.1401 -148033.3458 -117219.3324 299.5690 -53.7117 -61.9930 499267.4775 1.4840 1.3715
ENERGY: 24000 1667.6877 2428.8385 3247.9063 0.0000 -176249.7747 20408.9075 330.6959 0.0000 30872.7663 -117292.9725 300.1668 -148165.7388 -117242.9277 299.2310 -59.9439 10.5592 497892.8859 -7.9445 -7.5999
ENERGY: 25000 1641.7777 2376.6519 3196.6594 0.0000 -175555.0095 19840.3368 328.6897 0.0000 30691.3454 -117479.5487 298.4029 -148170.8941 -117428.5527 299.1566 -32.3880 41.2978 498616.9915 6.0145 6.0335
TCL: Setting parameter constraintScaling to 0.3125
TCL: Running for 5000 steps
ETITLE: TS BOND ANGLE DIHED IMPRP ELECT VDW BOUNDARY MISC KINETIC TOTAL TEMP POTENTIAL TOTAL3 TEMPAVG PRESSURE GPRESSURE VOLUME PRESSAVG GPRESSAVG
ENERGY: 25000 1641.7777 2376.6519 3196.6594 0.0000 -175555.0095 19840.3368 164.3448 0.0000 30689.3275 -117645.9114 298.3833 -148335.2389 -117603.2325 298.3833 -102.7009 -29.4864 498616.9915 -102.7009 -29.4864
ENERGY: 26000 1668.6459 2418.6155 3228.7048 0.0000 -176018.5234 20227.9514 248.7121 0.0000 30538.7374 -117687.1563 296.9191 -148225.8937 -117645.4972 298.4682 -81.4971 -43.4763 498748.2278 13.5836 14.1751
ENERGY: 27000 1629.0732 2475.1026 3214.9969 0.0000 -176069.1552 20143.7396 235.0458 0.0000 30979.3595 -117391.8377 301.2032 -148371.1972 -117338.9078 299.8645 -39.1852 -13.0323 498374.9680 -3.1187 -2.5116
ENERGY: 28000 1631.3263 2446.0042 3197.2975 0.0000 -175610.7486 20020.7810 261.7438 0.0000 30958.4120 -117095.1838 300.9995 -148053.5958 -117058.1806 300.6510 11.6224 6.2824 499944.1879 9.8998 10.2873
ENERGY: 29000 1635.5642 2488.2299 3191.9855 0.0000 -175456.8693 19995.6574 252.5735 0.0000 30883.7548 -117009.1040 300.2736 -147892.8588 -116969.5053 300.7026 -27.5211 32.1072 498361.9382 -2.8592 -3.2374
ENERGY: 30000 1640.9800 2426.8401 3239.1224 0.0000 -175538.4569 19942.6659 272.1101 0.0000 30866.5769 -117150.1615 300.1066 -148016.7384 -117108.7697 301.1015 10.1519 3.8078 497820.6381 5.6338 5.1374
TCL: Setting parameter constraintScaling to 0.15625
TCL: Running for 5000 steps
ETITLE: TS BOND ANGLE DIHED IMPRP ELECT VDW BOUNDARY MISC KINETIC TOTAL TEMP POTENTIAL TOTAL3 TEMPAVG PRESSURE GPRESSURE VOLUME PRESSAVG GPRESSAVG
ENERGY: 30000 1640.9800 2426.8401 3239.1224 0.0000 -175538.4569 19942.6659 136.0551 0.0000 30864.5520 -117288.2415 300.0869 -148152.7935 -117245.0833 300.0869 -9.3812 -8.0287 497820.6381 -9.3812 -8.0287
ENERGY: 31000 1632.4125 2419.7236 3212.1122 0.0000 -175452.2604 19832.9173 213.2069 0.0000 30994.5191 -117147.3687 301.3506 -148141.8878 -117104.0021 300.7190 -139.7809 -34.8756 499313.1174 24.2739 23.8401
ENERGY: 32000 1659.2271 2455.2352 3199.5183 0.0000 -175771.0888 20137.0598 197.0373 0.0000 30862.9391 -117260.0722 300.0712 -148123.0113 -117211.4549 299.5013 -107.3380 -60.0071 499202.4046 3.7615 3.0593
ENERGY: 33000 1637.6878 2489.5354 3227.4615 0.0000 -176158.1538 20260.3525 227.4168 0.0000 30623.3027 -117692.3971 297.7413 -148315.6998 -117656.6244 299.9424 -44.4931 20.1076 498133.7134 1.1190 1.1861
ENERGY: 34000 1560.5457 2370.9057 3229.2479 0.0000 -175996.5219 20015.1599 216.8099 0.0000 30781.3111 -117822.5419 299.2776 -148603.8529 -117782.7435 298.7065 102.4139 7.7615 498156.0668 2.3066 2.4866
ENERGY: 35000 1622.0429 2355.7545 3214.4210 0.0000 -175807.5884 20104.4276 198.1013 0.0000 30899.3612 -117413.4799 300.4254 -148312.8411 -117354.4545 298.9622 -97.7548 -49.6463 497568.8655 -0.7013 -1.1506
TCL: Setting parameter constraintScaling to 0.078125
TCL: Running for 5000 steps
ETITLE: TS BOND ANGLE DIHED IMPRP ELECT VDW BOUNDARY MISC KINETIC TOTAL TEMP POTENTIAL TOTAL3 TEMPAVG PRESSURE GPRESSURE VOLUME PRESSAVG GPRESSAVG
ENERGY: 35000 1622.0429 2355.7545 3214.4210 0.0000 -175807.5884 20104.4276 99.0507 0.0000 30897.2975 -117514.5943 300.4053 -148411.8918 -117470.7608 300.4053 -122.5799 -60.9739 497568.8655 -122.5799 -60.9739
ENERGY: 36000 1629.3631 2403.2063 3226.9675 0.0000 -175591.8151 19928.2764 141.3951 0.0000 30829.5115 -117433.0953 299.7462 -148262.6068 -117383.6333 300.3785 41.4383 43.3461 498952.7314 23.4252 23.5498
ENERGY: 37000 1649.7066 2407.0723 3209.9446 0.0000 -175831.3626 19968.3382 159.1265 0.0000 30783.9305 -117653.2440 299.3031 -148437.1745 -117604.4529 299.1988 -45.0103 -6.5836 497661.2194 2.5652 2.0881
ENERGY: 38000 1640.5335 2426.9931 3236.1198 0.0000 -176085.2339 20218.3271 161.4446 0.0000 30864.1877 -117537.6282 300.0834 -148401.8159 -117491.6265 299.6534 34.4831 25.6092 496507.6208 -9.5047 -9.7574
ENERGY: 39000 1598.0034 2420.3917 3250.0606 0.0000 -175987.2564 20144.4472 161.5814 0.0000 30701.6331 -117711.1390 298.5029 -148412.7722 -117667.5127 298.8006 -13.9387 13.0323 497111.9999 -2.7223 -2.3215
ENERGY: 40000 1673.9221 2476.4469 3220.0824 0.0000 -176097.1905 20241.0274 173.7463 0.0000 30504.9769 -117806.9885 296.5909 -148311.9654 -117760.7816 298.3003 -113.5357 10.5503 496821.3777 2.6357 2.9748
TCL: Setting parameter constraintScaling to 0.0390625
TCL: Running for 5000 steps
ETITLE: TS BOND ANGLE DIHED IMPRP ELECT VDW BOUNDARY MISC KINETIC TOTAL TEMP POTENTIAL TOTAL3 TEMPAVG PRESSURE GPRESSURE VOLUME PRESSAVG GPRESSAVG
ENERGY: 40000 1673.9221 2476.4469 3220.0824 0.0000 -176097.1905 20241.0274 86.8732 0.0000 30502.9617 -117895.8769 296.5713 -148398.8386 -117853.4955 296.5713 -116.3924 4.4457 496821.3777 -116.3924 4.4457
ENERGY: 41000 1639.8813 2420.5368 3220.7551 0.0000 -175818.5189 20090.7743 111.1821 0.0000 30674.7089 -117660.6803 298.2411 -148335.3893 -117610.3479 299.0368 52.5762 -32.6575 496427.8257 -0.2955 0.1381
ENERGY: 42000 1651.0947 2377.8628 3219.1319 0.0000 -175943.1111 20051.5780 118.2093 0.0000 30629.7040 -117895.5303 297.8036 -148525.2343 -117857.0183 299.0933 -97.7550 -27.3562 496502.3623 9.0434 8.9701
ENERGY: 43000 1557.3812 2422.1332 3217.5372 0.0000 -175831.7922 19927.2640 126.4872 0.0000 30688.2659 -117892.7236 298.3729 -148580.9895 -117845.6536 299.3586 -43.7205 -13.1832 496103.0628 9.0659 9.1747
ENERGY: 44000 1577.5770 2376.3876 3217.7649 0.0000 -175753.8477 19786.4930 132.1546 0.0000 30789.2090 -117874.2617 299.3544 -148663.4707 -117822.8355 299.2424 27.6898 -3.6253 495913.8838 0.7137 0.6820
ENERGY: 45000 1674.9560 2398.5496 3222.5919 0.0000 -175534.6033 19939.0078 134.5765 0.0000 30994.0345 -117170.8870 301.3458 -148164.9215 -117132.8332 300.2708 -19.4224 -7.6416 498226.0248 12.3959 12.1806
TCL: Setting parameter constraintScaling to 0.01953125
TCL: Running for 5000 steps
ETITLE: TS BOND ANGLE DIHED IMPRP ELECT VDW BOUNDARY MISC KINETIC TOTAL TEMP POTENTIAL TOTAL3 TEMPAVG PRESSURE GPRESSURE VOLUME PRESSAVG GPRESSAVG
ENERGY: 45000 1674.9560 2398.5496 3222.5919 0.0000 -175534.6033 19939.0078 67.2883 0.0000 30991.9937 -117240.2161 301.3260 -148232.2098 -117195.1020 301.3260 -32.0497 -16.2021 498226.0248 -32.0497 -16.2021
ENERGY: 46000 1633.4191 2399.7026 3217.3826 0.0000 -175687.4021 20098.7305 82.2227 0.0000 30796.2880 -117459.6566 299.4232 -148255.9446 -117407.1107 300.5929 -81.3658 42.2410 498601.7448 6.9093 7.2753
ENERGY: 47000 1601.7021 2336.4296 3231.0628 0.0000 -175719.7152 19976.5594 83.5668 0.0000 30879.3850 -117611.0095 300.2311 -148490.3945 -117566.6494 300.0141 -47.1439 10.2087 497514.0756 -4.7140 -4.5961
ENERGY: 48000 1627.7841 2449.2608 3198.3084 0.0000 -175862.7606 19907.6203 87.2460 0.0000 31154.5740 -117437.9670 302.9067 -148592.5410 -117393.6530 300.2490 -24.8547 -39.1863 495831.6063 -9.4393 -9.1801
ENERGY: 49000 1660.5163 2443.6182 3220.0204 0.0000 -175726.4824 19935.4540 87.1296 0.0000 31046.0978 -117333.6461 301.8520 -148379.7439 -117277.9709 300.4680 -89.2590 -30.8478 497041.9793 0.2395 -0.0735
ENERGY: 50000 1645.4110 2422.8885 3200.5031 0.0000 -175608.2574 19875.9533 85.1667 0.0000 30766.8381 -117611.4967 299.1369 -148378.3349 -117564.9819 299.9579 22.5311 -25.3903 496461.0161 -3.1125 -3.5397
TCL: Setting parameter constraintScaling to 0
TCL: Running for 5000 steps
ETITLE: TS BOND ANGLE DIHED IMPRP ELECT VDW BOUNDARY MISC KINETIC TOTAL TEMP POTENTIAL TOTAL3 TEMPAVG PRESSURE GPRESSURE VOLUME PRESSAVG GPRESSAVG
ENERGY: 50000 1645.4110 2422.8885 3200.5031 0.0000 -175608.2574 19875.9533 0.0000 0.0000 30764.7800 -117698.7215 299.1169 -148463.5015 -117659.0193 299.1169 5.7913 -39.5960 496461.0161 5.7913 -39.5960
ENERGY: 51000 1598.5808 2388.7857 3206.5886 0.0000 -176320.8810 20246.0433 0.0000 0.0000 30784.7196 -118096.1630 299.3107 -148880.8826 -118057.1293 298.7594 -77.0829 -22.8001 498063.1101 15.5395 16.6345
ENERGY: 52000 1638.4222 2340.7277 3191.7182 0.0000 -175883.0410 20011.6719 0.0000 0.0000 30747.0004 -117953.5007 298.9440 -148700.5011 -117902.0154 299.8451 -185.1849 -200.5002 499215.0299 11.2097 11.0569
ENERGY: 53000 1593.4555 2367.6323 3207.9355 0.0000 -176006.0957 19962.7288 0.0000 0.0000 30942.3732 -117931.9705 300.8436 -148874.3437 -117884.9272 299.9092 -21.0497 -67.0594 496070.6514 -2.8040 -3.0642
ENERGY: 54000 1674.3923 2407.8977 3208.3436 0.0000 -176177.2759 20163.1524 0.0000 0.0000 31061.5417 -117661.9482 302.0022 -148723.4899 -117611.3626 300.4724 39.6325 4.9591 497818.2828 10.3946 9.8955
ENERGY: 55000 1655.3561 2351.4058 3233.6560 0.0000 -175644.9743 19995.4669 0.0000 0.0000 30931.6171 -117477.4724 300.7390 -148409.0895 -117427.6650 299.8454 -7.5511 -25.9570 497367.0510 1.5978 1.3530
