Info: SIMULATION PARAMETERS:
Info: TIMESTEP               2
Info: NUMBER OF STEPS        0
Info: STEPS PER CYCLE        10
Info: PERIODIC CELL BASIS 1  72.449 0 0
Info: PERIODIC CELL BASIS 2  0 93.247 0
Info: PERIODIC CELL BASIS 3  0 0 79.185
Info: PERIODIC CELL CENTER   -0.248 -0.156 -0.047
Info: WRAPPING WATERS AROUND PERIODIC BOUNDARIES ON OUTPUT.
Info: WRAPPING ALL CLUSTERS AROUND PERIODIC BOUNDARIES ON OUTPUT.
Info: FIRST LDB TIMESTEP     50
Info: LAST LDB TIMESTEP     -1
Info: HOM BACKGROUND SCALING 1
Info: PME BACKGROUND SCALING 1
Info: MIN ATOMS PER PATCH    40
Info: INITIAL TEMPERATURE    0
Info: CENTER OF MASS MOVING INITIALLY? NO
Info: DIELECTRIC             1
Info: EXCLUDE                SCALED ONE-FOUR
Info: 1-4 ELECTROSTATICS SCALED BY 0.833333
Info: MODIFIED 1-4 VDW PARAMETERS WILL BE USED
Info: NO DCD TRAJECTORY OUTPUT
Info: NO EXTENDED SYSTEM TRAJECTORY OUTPUT
Info: NO VELOCITY DCD OUTPUT
Info: NO FORCE DCD OUTPUT
Info: OUTPUT FILENAME        ../replicas/rep98/equilibration/eq0
Info: NO RESTART FILE
Info: SWITCHING ACTIVE
Info: SWITCHING ON           10
Info: SWITCHING OFF          12
Info: PAIRLIST DISTANCE      13.5
Info: PAIRLIST SHRINK RATE   0.01
Info: PAIRLIST GROW RATE     0.01
Info: PAIRLIST TRIGGER       0.3
Info: PAIRLISTS PER CYCLE    2
Info: PAIRLISTS ENABLED
Info: MARGIN                 0
Info: HYDROGEN GROUP CUTOFF  2.5
Info: PATCH DIMENSION        16
Info: ENERGY OUTPUT STEPS    500
Info: CROSSTERM ENERGY INCLUDED IN DIHEDRAL
Info: TIMING OUTPUT STEPS    5000
Info: PRESSURE OUTPUT STEPS  500
Info: HARMONIC CONSTRAINTS ACTIVE
Info: HARMONIC CONS EXP      2
Info: HARMONIC CONS SCALING  10
Info: CONJUGATE GRADIENT MINIMIZATION ACTIVE
Info: LINE MINIMIZATION GOAL = 0.001
Info: BABY STEP SIZE = 0.01
Info: TINY STEP SIZE = 1e-06
Info: PARTICLE MESH EWALD (PME) ACTIVE
Info: PME TOLERANCE               1e-06
Info: PME EWALD COEFFICIENT       0.257952
Info: PME INTERPOLATION ORDER     4
Info: PME GRID DIMENSIONS         80 96 80
Info: PME MAXIMUM GRID SPACING    1
Info: FULL ELECTROSTATIC EVALUATION FREQUENCY      2
Info: USING VERLET I (r-RESPA) MTS SCHEME.
Info: C1 SPLITTING OF LONG RANGE ELECTROSTATICS
Info: PLACING ATOMS IN PATCHES BY HYDROGEN GROUPS
Info: RIGID BONDS TO HYDROGEN : ALL
Info:         ERROR TOLERANCE : 1e-05
Info:          MAX ITERATIONS : 100
Info: RIGID WATER USING SETTLE ALGORITHM
Info: RANDOM NUMBER SEED     1503701536
Info: USE HYDROGEN BONDS?    NO
Info: Using AMBER format force field!
Info: AMBER PARM FILE        ../build/complex.top
Info: COORDINATE PDB         ../build/complex.pdb
Info: Exclusions in PARM file will be ignored!
Info: SCNB (VDW SCALING)     2
Info: USING ARITHMETIC MEAN TO COMBINE L-J SIGMA PARAMETERS
Info: SUMMARY OF PARAMETERS:
Info: 71 BONDS
Info: 145 ANGLES
Info: 76 DIHEDRAL
Info: 0 IMPROPER
Info: 0 CROSSTERM
Info: 0 VDW
Info: 190 VDW_PAIRS
Info: 0 NBTHOLE_PAIRS
Info: STRUCTURE SUMMARY:
Info: 49394 ATOMS
Info: 49448 BONDS
Info: 8698 ANGLES
Info: 18780 DIHEDRALS
Info: 0 IMPROPERS
Info: 0 CROSSTERMS
Info: 0 EXCLUSIONS
Info: 2336 CONSTRAINTS
Info: 47058 RIGID BONDS
Info: 101124 DEGREES OF FREEDOM
Info: 17225 HYDROGEN GROUPS
Info: 4 ATOMS IN LARGEST HYDROGEN GROUP
Info: 17225 MIGRATION GROUPS
Info: 4 ATOMS IN LARGEST MIGRATION GROUP
Info: TOTAL MASS = 301478 amu
Info: TOTAL CHARGE = 1.00115e-05 e
Info: MASS DENSITY = 0.935846 g/cm^3
Info: ATOM DENSITY = 0.0923345 atoms/A^3
Info: ADDED 70656 IMPLICIT EXCLUSIONS
Info: NONBONDED TABLE R-SQUARED SPACING: 0.0625
Info: NONBONDED TABLE SIZE: 769 POINTS
Info: REMOVING COM VELOCITY 0 0 0
TCL: Minimizing for 100 steps
ETITLE: TS BOND ANGLE DIHED IMPRP ELECT VDW BOUNDARY MISC KINETIC TOTAL TEMP POTENTIAL TOTAL3 TEMPAVG PRESSURE GPRESSURE VOLUME PRESSAVG GPRESSAVG
ENERGY: 0 155.4176 1012.2698 2855.7272 0.0000 -154496.7911 207729.2052 0.0468 0.0000 0.0000 57255.8755 0.0000 57255.8755 57255.8755 0.0000 116350.2532 86546.1671 534946.2959 116350.2532 86546.1671
ENERGY: 20 304.7551 935.7911 2893.4663 0.0000 -158672.9405 17936.6594 143.9454 0.0000 0.0000 -136458.3231 0.0000 -136458.3231 -136458.3231 0.0000 16523.9387 -239.4558 534946.2959 16523.9387 -239.4558
ENERGY: 40 198.7471 799.5731 2896.9273 0.0000 -162811.4540 16417.9535 221.3031 0.0000 0.0000 -142276.9499 0.0000 -142276.9499 -142276.9499 0.0000 15011.2700 -2135.4701 534946.2959 15011.2700 -2135.4701
ENERGY: 60 130.5279 715.3439 2898.2166 0.0000 -167496.1614 15446.7532 315.2797 0.0000 0.0000 -147990.0399 0.0000 -147990.0399 -147990.0399 0.0000 13793.8827 -3799.4000 534946.2959 13793.8827 -3799.4000
ENERGY: 80 431.2717 765.6304 2904.3788 0.0000 -169937.5377 15121.1515 372.0124 0.0000 0.0000 -150343.0929 0.0000 -150343.0929 -150343.0929 0.0000 13270.3285 -4577.2479 534946.2959 13270.3285 -4577.2479
ENERGY: 100 129.7121 708.0642 2904.2781 0.0000 -171050.0678 15018.6536 384.2002 0.0000 0.0000 -151905.1595 0.0000 -151905.1595 -151905.1595 0.0000 13092.9126 -4843.6313 534946.2959 13092.9126 -4843.6313
TCL: Setting parameter constraintScaling to 5.0
TCL: Minimizing for 100 steps
ETITLE: TS BOND ANGLE DIHED IMPRP ELECT VDW BOUNDARY MISC KINETIC TOTAL TEMP POTENTIAL TOTAL3 TEMPAVG PRESSURE GPRESSURE VOLUME PRESSAVG GPRESSAVG
ENERGY: 100 129.7121 708.0642 2904.2781 0.0000 -171050.0678 15018.6536 192.1001 0.0000 0.0000 -152097.2596 0.0000 -152097.2596 -152097.2596 0.0000 13703.5079 -22944.4549 534946.2959 13703.5079 -22944.4549
ENERGY: 120 118.6814 680.2874 2909.9066 0.0000 -172396.3104 14830.1207 259.9548 0.0000 0.0000 -153597.3594 0.0000 -153597.3594 -153597.3594 0.0000 13320.9481 -4756.3061 534946.2959 13320.9481 -4756.3061
ENERGY: 140 109.1476 671.1469 2912.0863 0.0000 -174830.2337 14716.1441 337.7300 0.0000 0.0000 -156083.9789 0.0000 -156083.9789 -156083.9789 0.0000 12908.9634 -5423.1390 534946.2959 12908.9634 -5423.1390
ENERGY: 160 125.8492 667.1506 2914.1925 0.0000 -175967.0716 14735.1353 362.9193 0.0000 0.0000 -157161.8247 0.0000 -157161.8247 -157161.8247 0.0000 12806.8928 -5644.8015 534946.2959 12806.8928 -5644.8015
ENERGY: 180 303.4815 659.6835 2917.2967 0.0000 -177408.7693 14815.0192 395.3837 0.0000 0.0000 -158317.9046 0.0000 -158317.9046 -158317.9046 0.0000 12699.3129 -5901.8869 534946.2959 12699.3129 -5901.8869
ENERGY: 200 109.2088 628.4701 2923.3574 0.0000 -179543.6755 15071.1268 441.8767 0.0000 0.0000 -160369.6357 0.0000 -160369.6357 -160369.6357 0.0000 12659.9907 -6156.1065 534946.2959 12659.9907 -6156.1065
TCL: Setting parameter constraintScaling to 2.5
TCL: Minimizing for 100 steps
ETITLE: TS BOND ANGLE DIHED IMPRP ELECT VDW BOUNDARY MISC KINETIC TOTAL TEMP POTENTIAL TOTAL3 TEMPAVG PRESSURE GPRESSURE VOLUME PRESSAVG GPRESSAVG
ENERGY: 200 109.2088 628.4701 2923.3574 0.0000 -179543.6755 15071.1268 220.9383 0.0000 0.0000 -160590.5740 0.0000 -160590.5740 -160590.5740 0.0000 13208.4106 -25275.2341 534946.2959 13208.4106 -25275.2341
ENERGY: 220 275.0125 652.0708 2925.2506 0.0000 -180394.9693 15108.8123 287.9196 0.0000 0.0000 -161145.9034 0.0000 -161145.9034 -161145.9034 0.0000 13000.1116 -5915.3425 534946.2959 13000.1116 -5915.3425
ENERGY: 240 144.5899 629.1156 2922.0975 0.0000 -181650.1329 15308.6852 331.5581 0.0000 0.0000 -162314.0865 0.0000 -162314.0865 -162314.0865 0.0000 12968.5364 -6077.0254 534946.2959 12968.5364 -6077.0254
ENERGY: 260 238.3122 648.2483 2922.1856 0.0000 -183604.4798 15751.2984 409.8816 0.0000 0.0000 -163634.5537 0.0000 -163634.5537 -163634.5537 0.0000 12997.3075 -6266.0179 534946.2959 12997.3075 -6266.0179
ENERGY: 280 149.4504 673.2848 2920.5813 0.0000 -184616.5355 16041.9338 432.7011 0.0000 0.0000 -164398.5842 0.0000 -164398.5842 -164398.5842 0.0000 13100.4912 -6287.0425 534946.2959 13100.4912 -6287.0425
ENERGY: 300 181.2104 672.4830 2923.2684 0.0000 -185734.9710 16390.1796 427.9715 0.0000 0.0000 -165139.8581 0.0000 -165139.8581 -165139.8581 0.0000 13253.6976 -6239.8725 534946.2959 13253.6976 -6239.8725
TCL: Setting parameter constraintScaling to 1.25
TCL: Minimizing for 100 steps
ETITLE: TS BOND ANGLE DIHED IMPRP ELECT VDW BOUNDARY MISC KINETIC TOTAL TEMP POTENTIAL TOTAL3 TEMPAVG PRESSURE GPRESSURE VOLUME PRESSAVG GPRESSAVG
ENERGY: 300 181.2104 672.4830 2923.2684 0.0000 -185734.9710 16390.1796 213.9857 0.0000 0.0000 -165353.8438 0.0000 -165353.8438 -165353.8438 0.0000 13669.3289 -26243.7504 534946.2959 13669.3289 -26243.7504
ENERGY: 320 165.2827 664.7880 2915.3122 0.0000 -186219.7041 16486.7729 249.7989 0.0000 0.0000 -165737.7494 0.0000 -165737.7494 -165737.7494 0.0000 13643.8769 -5913.3488 534946.2959 13643.8769 -5913.3488
ENERGY: 340 196.5017 677.5218 2911.1723 0.0000 -187441.2447 16815.3026 331.3282 0.0000 0.0000 -166509.4181 0.0000 -166509.4181 -166509.4181 0.0000 13598.2155 -6085.4927 534946.2959 13598.2155 -6085.4927
ENERGY: 360 148.4901 663.6389 2904.8563 0.0000 -188256.1510 17081.4124 350.3707 0.0000 0.0000 -167107.3825 0.0000 -167107.3825 -167107.3825 0.0000 13740.3488 -6052.4995 534946.2959 13740.3488 -6052.4995
ENERGY: 380 175.1456 658.4050 2910.0283 0.0000 -188877.2047 17331.5653 330.3456 0.0000 0.0000 -167471.7150 0.0000 -167471.7150 -167471.7150 0.0000 13882.7421 -5960.3320 534946.2959 13882.7421 -5960.3320
ENERGY: 400 206.4511 681.9093 2926.8756 0.0000 -190102.9922 17827.8483 327.1170 0.0000 0.0000 -168132.7910 0.0000 -168132.7910 -168132.7910 0.0000 14170.9670 -5837.9133 534946.2959 14170.9670 -5837.9133
TCL: Setting parameter constraintScaling to 0.625
TCL: Minimizing for 100 steps
ETITLE: TS BOND ANGLE DIHED IMPRP ELECT VDW BOUNDARY MISC KINETIC TOTAL TEMP POTENTIAL TOTAL3 TEMPAVG PRESSURE GPRESSURE VOLUME PRESSAVG GPRESSAVG
ENERGY: 400 206.4511 681.9093 2926.8756 0.0000 -190102.9922 17827.8483 163.5585 0.0000 0.0000 -168296.3495 0.0000 -168296.3495 -168296.3495 0.0000 14448.9438 -26505.8124 534946.2959 14448.9438 -26505.8124
ENERGY: 420 152.2305 634.0736 2898.9969 0.0000 -190440.6437 17880.8490 193.6876 0.0000 0.0000 -168680.8062 0.0000 -168680.8062 -168680.8062 0.0000 14350.1182 -5678.6866 534946.2959 14350.1182 -5678.6866
ENERGY: 440 464.4182 713.5990 2900.1574 0.0000 -191445.3972 18181.6400 258.1555 0.0000 0.0000 -168927.4270 0.0000 -168927.4270 -168927.4270 0.0000 14303.9639 -5822.6552 534946.2959 14303.9639 -5822.6552
ENERGY: 460 157.1760 682.4694 2893.5387 0.0000 -192572.2017 18587.5297 283.3351 0.0000 0.0000 -169968.1528 0.0000 -169968.1528 -169968.1528 0.0000 14535.4255 -5733.3589 534946.2959 14535.4255 -5733.3589
ENERGY: 480 155.9811 658.0175 2886.2521 0.0000 -192892.3016 18722.7478 287.7719 0.0000 0.0000 -170181.5312 0.0000 -170181.5312 -170181.5312 0.0000 14575.7153 -5726.4857 534946.2959 14575.7153 -5726.4857
ENERGY: 500 164.5036 713.4762 2884.9871 0.0000 -193957.3274 19195.5016 290.6024 0.0000 0.0000 -170708.2564 0.0000 -170708.2564 -170708.2564 0.0000 14842.4840 -5578.5824 534946.2959 14842.4840 -5578.5824
TCL: Setting parameter constraintScaling to 0.3125
TCL: Minimizing for 100 steps
ETITLE: TS BOND ANGLE DIHED IMPRP ELECT VDW BOUNDARY MISC KINETIC TOTAL TEMP POTENTIAL TOTAL3 TEMPAVG PRESSURE GPRESSURE VOLUME PRESSAVG GPRESSAVG
ENERGY: 500 164.5036 713.4762 2884.9871 0.0000 -193957.3274 19195.5016 145.3012 0.0000 0.0000 -170853.5576 0.0000 -170853.5576 -170853.5576 0.0000 15033.1012 -26824.3839 534946.2959 15033.1012 -26824.3839
ENERGY: 520 157.0466 640.5011 2883.7621 0.0000 -194190.0090 19228.2953 153.3660 0.0000 0.0000 -171127.0379 0.0000 -171127.0379 -171127.0379 0.0000 15032.5528 -5413.7112 534946.2959 15032.5528 -5413.7112
ENERGY: 540 185.0333 673.3464 2876.5804 0.0000 -194656.4474 19378.3055 170.8087 0.0000 0.0000 -171372.3730 0.0000 -171372.3730 -171372.3730 0.0000 15061.3290 -5435.6985 534946.2959 15061.3290 -5435.6985
ENERGY: 560 249.9710 695.5097 2872.3942 0.0000 -196191.6828 19970.7189 219.5230 0.0000 0.0000 -172183.5659 0.0000 -172183.5659 -172183.5659 0.0000 15217.0697 -5439.7020 534946.2959 15217.0697 -5439.7020
ENERGY: 580 162.6488 660.3231 2867.7508 0.0000 -196258.5146 19989.2765 214.5624 0.0000 0.0000 -172363.9530 0.0000 -172363.9530 -172363.9530 0.0000 15275.9750 -5406.2963 534946.2959 15275.9750 -5406.2963
ENERGY: 600 172.8892 670.1568 2875.9292 0.0000 -196966.5839 20289.2128 206.4508 0.0000 0.0000 -172751.9451 0.0000 -172751.9451 -172751.9451 0.0000 15519.7942 -5258.6413 534946.2959 15519.7942 -5258.6413
TCL: Setting parameter constraintScaling to 0.15625
TCL: Minimizing for 100 steps
ETITLE: TS BOND ANGLE DIHED IMPRP ELECT VDW BOUNDARY MISC KINETIC TOTAL TEMP POTENTIAL TOTAL3 TEMPAVG PRESSURE GPRESSURE VOLUME PRESSAVG GPRESSAVG
ENERGY: 600 172.8892 670.1568 2875.9292 0.0000 -196966.5839 20289.2128 103.2254 0.0000 0.0000 -172855.1705 0.0000 -172855.1705 -172855.1705 0.0000 15639.0595 -26928.5872 534946.2959 15639.0595 -26928.5872
ENERGY: 620 155.3276 645.8605 2862.2057 0.0000 -197168.4927 20346.2704 110.6944 0.0000 0.0000 -173048.1341 0.0000 -173048.1341 -173048.1341 0.0000 15597.4264 -5191.8899 534946.2959 15597.4264 -5191.8899
ENERGY: 640 197.5038 668.6825 2858.4293 0.0000 -197741.0468 20544.3876 125.0134 0.0000 0.0000 -173347.0302 0.0000 -173347.0302 -173347.0302 0.0000 15639.6576 -5218.0841 534946.2959 15639.6576 -5218.0841
ENERGY: 660 186.5054 663.6628 2859.2172 0.0000 -198010.5106 20636.3794 124.3029 0.0000 0.0000 -173540.4430 0.0000 -173540.4430 -173540.4430 0.0000 15731.9352 -5155.0839 534946.2959 15731.9352 -5155.0839
ENERGY: 680 159.2991 653.6185 2859.7447 0.0000 -198205.4587 20714.2853 125.7379 0.0000 0.0000 -173692.7733 0.0000 -173692.7733 -173692.7733 0.0000 15780.3852 -5130.4824 534946.2959 15780.3852 -5130.4824
ENERGY: 700 192.8803 677.6493 2848.7675 0.0000 -198963.9459 21011.8800 138.5496 0.0000 0.0000 -174094.2191 0.0000 -174094.2191 -174094.2191 0.0000 15861.3232 -5130.6064 534946.2959 15861.3232 -5130.6064
TCL: Setting parameter constraintScaling to 0.078125
TCL: Minimizing for 100 steps
ETITLE: TS BOND ANGLE DIHED IMPRP ELECT VDW BOUNDARY MISC KINETIC TOTAL TEMP POTENTIAL TOTAL3 TEMPAVG PRESSURE GPRESSURE VOLUME PRESSAVG GPRESSAVG
ENERGY: 700 192.8803 677.6493 2848.7675 0.0000 -198963.9459 21011.8800 69.2748 0.0000 0.0000 -174163.4939 0.0000 -174163.4939 -174163.4939 0.0000 15931.0611 -27101.9471 534946.2959 15931.0611 -27101.9471
ENERGY: 720 214.3615 709.3000 2853.0114 0.0000 -199342.5832 21125.0125 72.9633 0.0000 0.0000 -174367.9345 0.0000 -174367.9345 -174367.9345 0.0000 16001.1279 -5041.7789 534946.2959 16001.1279 -5041.7789
ENERGY: 740 159.2271 654.6742 2846.3716 0.0000 -199487.7135 21182.9816 74.7344 0.0000 0.0000 -174569.7245 0.0000 -174569.7245 -174569.7245 0.0000 16020.6095 -5030.4374 534946.2959 16020.6095 -5030.4374
ENERGY: 760 230.9525 668.2566 2838.8818 0.0000 -200323.9926 21495.2897 82.2025 0.0000 0.0000 -175008.4095 0.0000 -175008.4095 -175008.4095 0.0000 16174.4666 -4997.1862 534946.2959 16174.4666 -4997.1862
ENERGY: 780 283.4155 715.6038 2837.1236 0.0000 -201513.3499 21997.2351 93.1818 0.0000 0.0000 -175586.7902 0.0000 -175586.7902 -175586.7902 0.0000 16429.1660 -4880.2074 534946.2959 16429.1660 -4880.2074
ENERGY: 800 176.5445 673.1911 2827.4904 0.0000 -202788.7906 22664.3517 107.5783 0.0000 0.0000 -176339.6345 0.0000 -176339.6345 -176339.6345 0.0000 16738.4875 -4707.6525 534946.2959 16738.4875 -4707.6525
TCL: Setting parameter constraintScaling to 0.0390625
TCL: Minimizing for 100 steps
ETITLE: TS BOND ANGLE DIHED IMPRP ELECT VDW BOUNDARY MISC KINETIC TOTAL TEMP POTENTIAL TOTAL3 TEMPAVG PRESSURE GPRESSURE VOLUME PRESSAVG GPRESSAVG
ENERGY: 800 176.5445 673.1911 2827.4904 0.0000 -202788.7906 22664.3517 53.7891 0.0000 0.0000 -176393.4237 0.0000 -176393.4237 -176393.4237 0.0000 16783.7560 -27168.5729 534946.2959 16783.7560 -27168.5729
ENERGY: 820 272.7850 754.8141 2833.7398 0.0000 -202967.7898 22673.2481 54.3032 0.0000 0.0000 -176378.8996 0.0000 -176378.8996 -176378.8996 0.0000 16762.3317 -4678.4363 534946.2959 16762.3317 -4678.4363
ENERGY: 840 170.4085 654.2926 2822.4322 0.0000 -203099.6944 22697.9658 54.7212 0.0000 0.0000 -176699.8741 0.0000 -176699.8741 -176699.8741 0.0000 16810.4978 -4675.0795 534946.2959 16810.4978 -4675.0795
ENERGY: 860 169.3415 651.8565 2819.4178 0.0000 -203636.8790 22882.3948 57.1042 0.0000 0.0000 -177056.7640 0.0000 -177056.7640 -177056.7640 0.0000 16894.8679 -4646.7109 534946.2959 16894.8679 -4646.7109
ENERGY: 880 220.8501 688.7880 2821.8697 0.0000 -204011.5518 23023.0364 59.0163 0.0000 0.0000 -177197.9912 0.0000 -177197.9912 -177197.9912 0.0000 16939.7405 -4642.7003 534946.2959 16939.7405 -4642.7003
ENERGY: 900 170.8133 661.6574 2813.4885 0.0000 -204299.1844 23153.7691 60.6215 0.0000 0.0000 -177438.8346 0.0000 -177438.8346 -177438.8346 0.0000 17031.1883 -4591.9859 534946.2959 17031.1883 -4591.9859
TCL: Setting parameter constraintScaling to 0.01953125
TCL: Minimizing for 100 steps
ETITLE: TS BOND ANGLE DIHED IMPRP ELECT VDW BOUNDARY MISC KINETIC TOTAL TEMP POTENTIAL TOTAL3 TEMPAVG PRESSURE GPRESSURE VOLUME PRESSAVG GPRESSAVG
ENERGY: 900 170.8133 661.6574 2813.4885 0.0000 -204299.1845 23153.7691 30.3108 0.0000 0.0000 -177469.1454 0.0000 -177469.1454 -177469.1454 0.0000 17055.9160 -27258.3347 534946.2959 17055.9160 -27258.3347
ENERGY: 920 164.1053 651.8305 2814.1017 0.0000 -204423.1190 23190.5008 30.6206 0.0000 0.0000 -177571.9600 0.0000 -177571.9600 -177571.9600 0.0000 17082.0698 -4553.5174 534946.2959 17082.0698 -4553.5174
ENERGY: 940 173.8250 657.9981 2814.1904 0.0000 -204730.4262 23327.0752 31.6218 0.0000 0.0000 -177725.7158 0.0000 -177725.7158 -177725.7158 0.0000 17129.8069 -4539.9416 534946.2959 17129.8069 -4539.9416
ENERGY: 960 162.3362 655.5749 2811.0192 0.0000 -204862.4549 23380.4794 32.0240 0.0000 0.0000 -177821.0212 0.0000 -177821.0212 -177821.0212 0.0000 17171.5700 -4516.1201 534946.2959 17171.5700 -4516.1201
ENERGY: 980 538.8775 764.9492 2812.0350 0.0000 -205418.0927 23628.6107 33.7418 0.0000 0.0000 -177639.8784 0.0000 -177639.8784 -177639.8784 0.0000 17225.8480 -4538.0145 534946.2959 17225.8480 -4538.0145
ENERGY: 1000 169.9150 657.0777 2809.1506 0.0000 -205434.2788 23624.8847 33.7535 0.0000 0.0000 -178139.4973 0.0000 -178139.4973 -178139.4973 0.0000 17282.1377 -4470.3307 534946.2959 17282.1377 -4470.3307
TCL: Setting parameter constraintScaling to 0
TCL: Minimizing for 5000 steps
ETITLE: TS BOND ANGLE DIHED IMPRP ELECT VDW BOUNDARY MISC KINETIC TOTAL TEMP POTENTIAL TOTAL3 TEMPAVG PRESSURE GPRESSURE VOLUME PRESSAVG GPRESSAVG
ENERGY: 1000 169.9150 657.0777 2809.1506 0.0000 -205434.2788 23624.8847 0.0000 0.0000 0.0000 -178173.2508 0.0000 -178173.2508 -178173.2508 0.0000 17308.6906 -27276.2757 534946.2959 17308.6906 -27276.2757
ENERGY: 2000 222.8525 685.4402 2808.5458 0.0000 -214770.1833 27929.7767 0.0000 0.0000 0.0000 -183123.5681 0.0000 -183123.5681 -183123.5681 0.0000 19623.5081 -3181.7453 534946.2959 19623.5081 -3181.7453
ENERGY: 3000 167.7744 666.3145 2796.8117 0.0000 -217484.9579 28930.7577 0.0000 0.0000 0.0000 -184923.2995 0.0000 -184923.2995 -184923.2995 0.0000 20138.6433 -2940.1329 534946.2959 20138.6433 -2940.1329
ENERGY: 4000 165.4921 663.5131 2790.0546 0.0000 -218928.4445 29510.1304 0.0000 0.0000 0.0000 -185799.2542 0.0000 -185799.2542 -185799.2542 0.0000 20453.2650 -2791.3967 534946.2959 20453.2650 -2791.3967
ENERGY: 5000 165.8535 664.6675 2784.8227 0.0000 -219583.8051 29751.4502 0.0000 0.0000 0.0000 -186217.0112 0.0000 -186217.0112 -186217.0112 0.0000 20574.4596 -2732.5065 534946.2959 20574.4596 -2732.5065
ENERGY: 6000 165.7545 664.3991 2783.8166 0.0000 -219991.9182 29932.9032 0.0000 0.0000 0.0000 -186445.0448 0.0000 -186445.0448 -186445.0448 0.0000 20668.3574 -2683.4200 534946.2959 20668.3574 -2683.4200
