Info: SIMULATION PARAMETERS:
Info: TIMESTEP               2
Info: NUMBER OF STEPS        0
Info: STEPS PER CYCLE        10
Info: PERIODIC CELL BASIS 1  72.449 0 0
Info: PERIODIC CELL BASIS 2  0 93.247 0
Info: PERIODIC CELL BASIS 3  0 0 79.185
Info: PERIODIC CELL CENTER   -0.248 -0.156 -0.047
Info: WRAPPING WATERS AROUND PERIODIC BOUNDARIES ON OUTPUT.
Info: WRAPPING ALL CLUSTERS AROUND PERIODIC BOUNDARIES ON OUTPUT.
Info: FIRST LDB TIMESTEP     50
Info: LAST LDB TIMESTEP     -1
Info: HOM BACKGROUND SCALING 1
Info: PME BACKGROUND SCALING 1
Info: MIN ATOMS PER PATCH    40
Info: INITIAL TEMPERATURE    0
Info: CENTER OF MASS MOVING INITIALLY? NO
Info: DIELECTRIC             1
Info: EXCLUDE                SCALED ONE-FOUR
Info: 1-4 ELECTROSTATICS SCALED BY 0.833333
Info: MODIFIED 1-4 VDW PARAMETERS WILL BE USED
Info: NO DCD TRAJECTORY OUTPUT
Info: NO EXTENDED SYSTEM TRAJECTORY OUTPUT
Info: NO VELOCITY DCD OUTPUT
Info: NO FORCE DCD OUTPUT
Info: OUTPUT FILENAME        ../replicas/rep9/equilibration/eq0
Info: NO RESTART FILE
Info: SWITCHING ACTIVE
Info: SWITCHING ON           10
Info: SWITCHING OFF          12
Info: PAIRLIST DISTANCE      13.5
Info: PAIRLIST SHRINK RATE   0.01
Info: PAIRLIST GROW RATE     0.01
Info: PAIRLIST TRIGGER       0.3
Info: PAIRLISTS PER CYCLE    2
Info: PAIRLISTS ENABLED
Info: MARGIN                 0
Info: HYDROGEN GROUP CUTOFF  2.5
Info: PATCH DIMENSION        16
Info: ENERGY OUTPUT STEPS    500
Info: CROSSTERM ENERGY INCLUDED IN DIHEDRAL
Info: TIMING OUTPUT STEPS    5000
Info: PRESSURE OUTPUT STEPS  500
Info: HARMONIC CONSTRAINTS ACTIVE
Info: HARMONIC CONS EXP      2
Info: HARMONIC CONS SCALING  10
Info: CONJUGATE GRADIENT MINIMIZATION ACTIVE
Info: LINE MINIMIZATION GOAL = 0.001
Info: BABY STEP SIZE = 0.01
Info: TINY STEP SIZE = 1e-06
Info: PARTICLE MESH EWALD (PME) ACTIVE
Info: PME TOLERANCE               1e-06
Info: PME EWALD COEFFICIENT       0.257952
Info: PME INTERPOLATION ORDER     4
Info: PME GRID DIMENSIONS         80 96 80
Info: PME MAXIMUM GRID SPACING    1
Info: FULL ELECTROSTATIC EVALUATION FREQUENCY      2
Info: USING VERLET I (r-RESPA) MTS SCHEME.
Info: C1 SPLITTING OF LONG RANGE ELECTROSTATICS
Info: PLACING ATOMS IN PATCHES BY HYDROGEN GROUPS
Info: RIGID BONDS TO HYDROGEN : ALL
Info:         ERROR TOLERANCE : 1e-05
Info:          MAX ITERATIONS : 100
Info: RIGID WATER USING SETTLE ALGORITHM
Info: RANDOM NUMBER SEED     1503250943
Info: USE HYDROGEN BONDS?    NO
Info: Using AMBER format force field!
Info: AMBER PARM FILE        ../build/complex.top
Info: COORDINATE PDB         ../build/complex.pdb
Info: Exclusions in PARM file will be ignored!
Info: SCNB (VDW SCALING)     2
Info: USING ARITHMETIC MEAN TO COMBINE L-J SIGMA PARAMETERS
Info: SUMMARY OF PARAMETERS:
Info: 71 BONDS
Info: 145 ANGLES
Info: 76 DIHEDRAL
Info: 0 IMPROPER
Info: 0 CROSSTERM
Info: 0 VDW
Info: 190 VDW_PAIRS
Info: 0 NBTHOLE_PAIRS
Info: STRUCTURE SUMMARY:
Info: 49394 ATOMS
Info: 49448 BONDS
Info: 8698 ANGLES
Info: 18780 DIHEDRALS
Info: 0 IMPROPERS
Info: 0 CROSSTERMS
Info: 0 EXCLUSIONS
Info: 2336 CONSTRAINTS
Info: 47058 RIGID BONDS
Info: 101124 DEGREES OF FREEDOM
Info: 17225 HYDROGEN GROUPS
Info: 4 ATOMS IN LARGEST HYDROGEN GROUP
Info: 17225 MIGRATION GROUPS
Info: 4 ATOMS IN LARGEST MIGRATION GROUP
Info: TOTAL MASS = 301478 amu
Info: TOTAL CHARGE = 1.00115e-05 e
Info: MASS DENSITY = 0.935846 g/cm^3
Info: ATOM DENSITY = 0.0923345 atoms/A^3
Info: ADDED 70656 IMPLICIT EXCLUSIONS
Info: NONBONDED TABLE R-SQUARED SPACING: 0.0625
Info: NONBONDED TABLE SIZE: 769 POINTS
Info: REMOVING COM VELOCITY 0 0 0
TCL: Minimizing for 100 steps
ETITLE: TS BOND ANGLE DIHED IMPRP ELECT VDW BOUNDARY MISC KINETIC TOTAL TEMP POTENTIAL TOTAL3 TEMPAVG PRESSURE GPRESSURE VOLUME PRESSAVG GPRESSAVG
ENERGY: 0 155.4176 1012.2698 2855.7272 0.0000 -154496.7913 207729.2052 0.0468 0.0000 0.0000 57255.8753 0.0000 57255.8753 57255.8753 0.0000 116350.2532 86546.1670 534946.2959 116350.2532 86546.1670
ENERGY: 20 304.7553 935.7912 2893.4663 0.0000 -158672.9406 17936.6594 143.9454 0.0000 0.0000 -136458.3231 0.0000 -136458.3231 -136458.3231 0.0000 16523.9386 -239.4559 534946.2959 16523.9386 -239.4559
ENERGY: 40 198.7452 799.5729 2896.9273 0.0000 -162811.4530 16417.9537 221.3030 0.0000 0.0000 -142276.9509 0.0000 -142276.9509 -142276.9509 0.0000 15011.2703 -2135.4698 534946.2959 15011.2703 -2135.4698
ENERGY: 60 130.5281 715.3440 2898.2166 0.0000 -167496.1580 15446.7537 315.2796 0.0000 0.0000 -147990.0359 0.0000 -147990.0359 -147990.0359 0.0000 13793.8834 -3799.3990 534946.2959 13793.8834 -3799.3990
ENERGY: 80 431.2733 765.6307 2904.3787 0.0000 -169937.5369 15121.1515 372.0124 0.0000 0.0000 -150343.0903 0.0000 -150343.0903 -150343.0903 0.0000 13270.3287 -4577.2477 534946.2959 13270.3287 -4577.2477
ENERGY: 100 129.7126 708.0644 2904.2781 0.0000 -171050.0647 15018.6540 384.2000 0.0000 0.0000 -151905.1556 0.0000 -151905.1556 -151905.1556 0.0000 13092.9132 -4843.6306 534946.2959 13092.9132 -4843.6306
TCL: Setting parameter constraintScaling to 5.0
TCL: Minimizing for 100 steps
ETITLE: TS BOND ANGLE DIHED IMPRP ELECT VDW BOUNDARY MISC KINETIC TOTAL TEMP POTENTIAL TOTAL3 TEMPAVG PRESSURE GPRESSURE VOLUME PRESSAVG GPRESSAVG
ENERGY: 100 129.7126 708.0644 2904.2781 0.0000 -171050.0647 15018.6540 192.1000 0.0000 0.0000 -152097.2557 0.0000 -152097.2557 -152097.2557 0.0000 13703.5083 -22944.4538 534946.2959 13703.5083 -22944.4538
ENERGY: 120 118.6819 680.2875 2909.9066 0.0000 -172396.3081 14830.1209 259.9548 0.0000 0.0000 -153597.3564 0.0000 -153597.3564 -153597.3564 0.0000 13320.9483 -4756.3057 534946.2959 13320.9483 -4756.3057
ENERGY: 140 109.1480 671.1472 2912.0863 0.0000 -174830.2227 14716.1442 337.7296 0.0000 0.0000 -156083.9674 0.0000 -156083.9674 -156083.9674 0.0000 12908.9644 -5423.1369 534946.2959 12908.9644 -5423.1369
ENERGY: 160 125.8469 667.1505 2914.1925 0.0000 -175967.0894 14735.1359 362.9197 0.0000 0.0000 -157161.8439 0.0000 -157161.8439 -157161.8439 0.0000 12806.8919 -5643.8267 534946.2959 12806.8919 -5643.8267
ENERGY: 180 303.4916 659.6840 2917.2967 0.0000 -177408.7501 14815.0177 395.3833 0.0000 0.0000 -158317.8769 0.0000 -158317.8769 -158317.8769 0.0000 12699.3133 -5900.9220 534946.2959 12699.3133 -5900.9220
ENERGY: 200 109.2125 628.4776 2923.3584 0.0000 -179543.9730 15071.1765 441.8845 0.0000 0.0000 -160369.8634 0.0000 -160369.8634 -160369.8634 0.0000 12659.9898 -6161.5132 534946.2959 12659.9898 -6161.5132
TCL: Setting parameter constraintScaling to 2.5
TCL: Minimizing for 100 steps
ETITLE: TS BOND ANGLE DIHED IMPRP ELECT VDW BOUNDARY MISC KINETIC TOTAL TEMP POTENTIAL TOTAL3 TEMPAVG PRESSURE GPRESSURE VOLUME PRESSAVG GPRESSAVG
ENERGY: 200 109.2125 628.4776 2923.3584 0.0000 -179543.9730 15071.1765 220.9423 0.0000 0.0000 -160590.8057 0.0000 -160590.8057 -160590.8057 0.0000 13208.4155 -25280.6696 534946.2959 13208.4155 -25280.6696
ENERGY: 220 169.2104 639.7663 2924.9597 0.0000 -180453.6029 15113.9248 291.2941 0.0000 0.0000 -161314.4478 0.0000 -161314.4478 -161314.4478 0.0000 13002.3527 -5924.2826 534946.2959 13002.3527 -5924.2826
ENERGY: 240 251.7901 643.1515 2921.4016 0.0000 -181893.8612 15358.8436 339.5537 0.0000 0.0000 -162379.1207 0.0000 -162379.1207 -162379.1207 0.0000 12964.0330 -6117.2850 534946.2959 12964.0330 -6117.2850
ENERGY: 260 174.2277 639.0087 2923.9251 0.0000 -184181.9238 15908.0510 437.5922 0.0000 0.0000 -164099.1191 0.0000 -164099.1191 -164099.1191 0.0000 13009.0403 -6316.1148 534946.2959 13009.0403 -6316.1148
ENERGY: 280 329.5151 683.7259 2917.5653 0.0000 -184859.0336 16113.2473 428.5658 0.0000 0.0000 -164386.4141 0.0000 -164386.4141 -164386.4141 0.0000 13134.1002 -6281.4845 534946.2959 13134.1002 -6281.4845
ENERGY: 300 138.7763 659.9046 2924.8228 0.0000 -186080.2852 16504.9271 425.5766 0.0000 0.0000 -165426.2778 0.0000 -165426.2778 -165426.2778 0.0000 13324.8207 -6220.0329 534946.2959 13324.8207 -6220.0329
TCL: Setting parameter constraintScaling to 1.25
TCL: Minimizing for 100 steps
ETITLE: TS BOND ANGLE DIHED IMPRP ELECT VDW BOUNDARY MISC KINETIC TOTAL TEMP POTENTIAL TOTAL3 TEMPAVG PRESSURE GPRESSURE VOLUME PRESSAVG GPRESSAVG
ENERGY: 300 138.7763 659.9046 2924.8228 0.0000 -186080.2852 16504.9271 212.7883 0.0000 0.0000 -165639.0661 0.0000 -165639.0661 -165639.0661 0.0000 13737.5339 -26266.8281 534946.2959 13737.5339 -26266.8281
ENERGY: 320 173.8415 649.6858 2909.7508 0.0000 -186995.7957 16715.5869 277.6994 0.0000 0.0000 -166269.2313 0.0000 -166269.2313 -166269.2313 0.0000 13701.0480 -5958.6950 534946.2959 13701.0480 -5958.6950
ENERGY: 340 222.2642 699.9755 2910.8953 0.0000 -188370.6783 17118.6517 355.6142 0.0000 0.0000 -167063.2773 0.0000 -167063.2773 -167063.2773 0.0000 13706.0383 -6086.8179 534946.2959 13706.0383 -6086.8179
ENERGY: 360 143.1604 643.9884 2903.9207 0.0000 -189055.2601 17359.2747 382.2678 0.0000 0.0000 -167622.6481 0.0000 -167622.6481 -167622.6481 0.0000 13817.2626 -6064.8204 534946.2959 13817.2626 -6064.8204
ENERGY: 380 220.7836 645.8670 2901.4247 0.0000 -189972.1162 17718.3506 363.1552 0.0000 0.0000 -168122.5351 0.0000 -168122.5351 -168122.5351 0.0000 14032.8451 -5946.1298 534946.2959 14032.8451 -5946.1298
ENERGY: 400 163.0506 667.5347 2910.1715 0.0000 -190691.2814 17989.2143 361.3310 0.0000 0.0000 -168599.9792 0.0000 -168599.9792 -168599.9792 0.0000 14166.6316 -5906.3220 534946.2959 14166.6316 -5906.3220
TCL: Setting parameter constraintScaling to 0.625
TCL: Minimizing for 100 steps
ETITLE: TS BOND ANGLE DIHED IMPRP ELECT VDW BOUNDARY MISC KINETIC TOTAL TEMP POTENTIAL TOTAL3 TEMPAVG PRESSURE GPRESSURE VOLUME PRESSAVG GPRESSAVG
ENERGY: 400 163.0506 667.5347 2910.1715 0.0000 -190691.2814 17989.2143 180.6655 0.0000 0.0000 -168780.6447 0.0000 -168780.6447 -168780.6447 0.0000 14452.8712 -26650.1457 534946.2959 14452.8712 -26650.1457
ENERGY: 420 640.0210 836.9531 2898.1829 0.0000 -191469.9972 18213.6475 235.6599 0.0000 0.0000 -168645.5328 0.0000 -168645.5328 -168645.5328 0.0000 14327.6001 -5843.6026 534946.2959 14327.6001 -5843.6026
ENERGY: 440 164.6952 653.4969 2890.1666 0.0000 -192108.4778 18430.9320 250.8801 0.0000 0.0000 -169718.3071 0.0000 -169718.3071 -169718.3071 0.0000 14500.1310 -5713.8687 534946.2959 14500.1310 -5713.8687
ENERGY: 460 151.6370 643.2707 2886.1949 0.0000 -192803.2058 18696.8416 269.5154 0.0000 0.0000 -170155.7463 0.0000 -170155.7463 -170155.7463 0.0000 14624.1144 -5673.3933 534946.2959 14624.1144 -5673.3933
ENERGY: 480 153.2433 660.2291 2890.5763 0.0000 -193032.3711 18769.3778 281.4454 0.0000 0.0000 -170277.4993 0.0000 -170277.4993 -170277.4993 0.0000 14623.6333 -5705.1659 534946.2959 14623.6333 -5705.1659
ENERGY: 500 274.3841 700.6891 2882.4050 0.0000 -194325.9959 19294.7781 296.4255 0.0000 0.0000 -170877.3140 0.0000 -170877.3140 -170877.3140 0.0000 14885.2910 -5580.3960 534946.2959 14885.2910 -5580.3960
TCL: Setting parameter constraintScaling to 0.3125
TCL: Minimizing for 100 steps
ETITLE: TS BOND ANGLE DIHED IMPRP ELECT VDW BOUNDARY MISC KINETIC TOTAL TEMP POTENTIAL TOTAL3 TEMPAVG PRESSURE GPRESSURE VOLUME PRESSAVG GPRESSAVG
ENERGY: 500 274.3841 700.6891 2882.4050 0.0000 -194325.9959 19294.7781 148.2128 0.0000 0.0000 -171025.5268 0.0000 -171025.5268 -171025.5268 0.0000 15077.0909 -26871.8889 534946.2959 15077.0909 -26871.8889
ENERGY: 520 177.8199 664.8736 2882.8021 0.0000 -194656.8861 19406.3863 158.8539 0.0000 0.0000 -171366.1504 0.0000 -171366.1504 -171366.1504 0.0000 15085.3302 -5411.8022 534946.2959 15085.3302 -5411.8022
ENERGY: 540 211.5205 677.0638 2874.8718 0.0000 -195375.9420 19662.6621 185.6848 0.0000 0.0000 -171764.1390 0.0000 -171764.1390 -171764.1390 0.0000 15125.4818 -5444.8283 534946.2959 15125.4818 -5444.8283
ENERGY: 560 264.9426 724.6562 2877.2242 0.0000 -195781.9717 19804.1512 195.1751 0.0000 0.0000 -171915.8223 0.0000 -171915.8223 -171915.8223 0.0000 15308.7605 -5362.8684 534946.2959 15308.7605 -5362.8684
ENERGY: 580 372.8849 700.6489 2874.4430 0.0000 -196233.5687 19994.9697 195.0445 0.0000 0.0000 -172095.5775 0.0000 -172095.5775 -172095.5775 0.0000 15253.2323 -5421.2752 534946.2959 15253.2323 -5421.2752
ENERGY: 600 232.6187 699.2563 2881.5836 0.0000 -197443.6274 20509.3038 207.0053 0.0000 0.0000 -172913.8597 0.0000 -172913.8597 -172913.8597 0.0000 15691.4248 -5170.2107 534946.2959 15691.4248 -5170.2107
TCL: Setting parameter constraintScaling to 0.15625
TCL: Minimizing for 100 steps
ETITLE: TS BOND ANGLE DIHED IMPRP ELECT VDW BOUNDARY MISC KINETIC TOTAL TEMP POTENTIAL TOTAL3 TEMPAVG PRESSURE GPRESSURE VOLUME PRESSAVG GPRESSAVG
ENERGY: 600 232.6187 699.2563 2881.5836 0.0000 -197443.6274 20509.3038 103.5026 0.0000 0.0000 -173017.3623 0.0000 -173017.3623 -173017.3623 0.0000 15810.7360 -26879.5170 534946.2959 15810.7360 -26879.5170
ENERGY: 620 172.3410 643.4115 2867.6594 0.0000 -197599.1396 20534.0139 109.7351 0.0000 0.0000 -173271.9788 0.0000 -173271.9788 -173271.9788 0.0000 15680.5201 -5151.6748 534946.2959 15680.5201 -5151.6748
ENERGY: 640 168.3070 661.4558 2860.6058 0.0000 -197896.7456 20622.4144 120.4557 0.0000 0.0000 -173463.5068 0.0000 -173463.5068 -173463.5068 0.0000 15731.8082 -5156.8530 534946.2959 15731.8082 -5156.8530
ENERGY: 660 172.9896 692.6281 2863.0402 0.0000 -198688.7998 20916.9829 141.2411 0.0000 0.0000 -173901.9181 0.0000 -173901.9181 -173901.9181 0.0000 15763.1869 -5194.2906 534946.2959 15763.1869 -5194.2906
ENERGY: 680 210.1021 655.4699 2855.5235 0.0000 -199010.4369 21031.9974 133.3124 0.0000 0.0000 -174124.0316 0.0000 -174124.0316 -174124.0316 0.0000 15891.1013 -5119.3623 534946.2959 15891.1013 -5119.3623
ENERGY: 700 160.9301 664.8452 2868.6523 0.0000 -199501.8754 21250.5527 133.4558 0.0000 0.0000 -174423.4392 0.0000 -174423.4392 -174423.4392 0.0000 16082.1465 -4986.9134 534946.2959 16082.1465 -4986.9134
TCL: Setting parameter constraintScaling to 0.078125
TCL: Minimizing for 100 steps
ETITLE: TS BOND ANGLE DIHED IMPRP ELECT VDW BOUNDARY MISC KINETIC TOTAL TEMP POTENTIAL TOTAL3 TEMPAVG PRESSURE GPRESSURE VOLUME PRESSAVG GPRESSAVG
ENERGY: 700 160.9301 664.8452 2868.6523 0.0000 -199501.8754 21250.5527 66.7279 0.0000 0.0000 -174490.1671 0.0000 -174490.1671 -174490.1671 0.0000 16151.9386 -27031.8587 534946.2959 16151.9386 -27031.8587
ENERGY: 720 157.3835 651.5055 2850.8597 0.0000 -199658.2543 21273.4719 70.8400 0.0000 0.0000 -174654.1937 0.0000 -174654.1937 -174654.1937 0.0000 16087.0873 -4993.9576 534946.2959 16087.0873 -4993.9576
ENERGY: 740 171.3513 694.0911 2847.8638 0.0000 -200109.2478 21428.2359 80.5583 0.0000 0.0000 -174887.1474 0.0000 -174887.1474 -174887.1474 0.0000 16115.5667 -5033.6953 534946.2959 16115.5667 -5033.6953
ENERGY: 760 188.7952 709.4273 2853.1918 0.0000 -200794.5403 21689.6237 90.0453 0.0000 0.0000 -175263.4569 0.0000 -175263.4569 -175263.4569 0.0000 16184.6208 -5025.4272 534946.2959 16184.6208 -5025.4272
ENERGY: 780 169.6573 657.8224 2841.4946 0.0000 -201480.7854 21967.4542 89.3863 0.0000 0.0000 -175754.9706 0.0000 -175754.9706 -175754.9706 0.0000 16399.0168 -4893.2583 534946.2959 16399.0168 -4893.2583
ENERGY: 800 184.3405 656.8033 2841.9420 0.0000 -201901.9583 22155.1401 92.0834 0.0000 0.0000 -175971.6491 0.0000 -175971.6491 -175971.6491 0.0000 16519.5101 -4833.7781 534946.2959 16519.5101 -4833.7781
TCL: Setting parameter constraintScaling to 0.0390625
TCL: Minimizing for 100 steps
ETITLE: TS BOND ANGLE DIHED IMPRP ELECT VDW BOUNDARY MISC KINETIC TOTAL TEMP POTENTIAL TOTAL3 TEMPAVG PRESSURE GPRESSURE VOLUME PRESSAVG GPRESSAVG
ENERGY: 800 184.3405 656.8033 2841.9420 0.0000 -201901.9583 22155.1401 46.0417 0.0000 0.0000 -176017.6908 0.0000 -176017.6908 -176017.6908 0.0000 16561.3810 -27195.5956 534946.2959 16561.3810 -27195.5956
ENERGY: 820 450.0293 716.3959 2830.8366 0.0000 -202229.5211 22268.1818 49.8369 0.0000 0.0000 -175914.2406 0.0000 -175914.2406 -175914.2406 0.0000 16510.0476 -4879.0648 534946.2959 16510.0476 -4879.0648
ENERGY: 840 299.3424 717.7145 2831.5802 0.0000 -202672.2820 22442.4371 51.7584 0.0000 0.0000 -176329.4495 0.0000 -176329.4495 -176329.4495 0.0000 16667.1742 -4787.7269 534946.2959 16667.1742 -4787.7269
ENERGY: 860 185.9960 687.5083 2826.4464 0.0000 -202660.3970 22432.5098 51.2459 0.0000 0.0000 -176476.6907 0.0000 -176476.6907 -176476.6907 0.0000 16649.8324 -4793.0206 534946.2959 16649.8324 -4793.0206
ENERGY: 880 470.1639 711.4933 2833.8612 0.0000 -203151.6591 22640.1244 52.6511 0.0000 0.0000 -176443.3652 0.0000 -176443.3652 -176443.3652 0.0000 16771.5310 -4732.8758 534946.2959 16771.5310 -4732.8758
ENERGY: 900 189.6218 666.7241 2821.7066 0.0000 -203549.5813 22799.0036 55.0699 0.0000 0.0000 -177017.4552 0.0000 -177017.4552 -177017.4552 0.0000 16861.4119 -4679.1111 534946.2959 16861.4119 -4679.1111
TCL: Setting parameter constraintScaling to 0.01953125
TCL: Minimizing for 100 steps
ETITLE: TS BOND ANGLE DIHED IMPRP ELECT VDW BOUNDARY MISC KINETIC TOTAL TEMP POTENTIAL TOTAL3 TEMPAVG PRESSURE GPRESSURE VOLUME PRESSAVG GPRESSAVG
ENERGY: 900 189.6218 666.7241 2821.7066 0.0000 -203549.5813 22799.0036 27.5350 0.0000 0.0000 -177044.9902 0.0000 -177044.9902 -177044.9902 0.0000 16884.7206 -27260.4643 534946.2959 16884.7206 -27260.4643
ENERGY: 920 162.5447 649.5282 2820.9717 0.0000 -203615.4090 22822.6136 27.9469 0.0000 0.0000 -177131.8039 0.0000 -177131.8039 -177131.8039 0.0000 16882.7459 -4663.2628 534946.2959 16882.7459 -4663.2628
ENERGY: 940 175.6596 659.6358 2818.5409 0.0000 -204008.2409 22995.4575 29.2437 0.0000 0.0000 -177329.7035 0.0000 -177329.7035 -177329.7035 0.0000 16953.1460 -4637.7700 534946.2959 16953.1460 -4637.7700
ENERGY: 960 215.7765 666.6690 2821.6229 0.0000 -204333.4595 23126.5520 30.0291 0.0000 0.0000 -177472.8099 0.0000 -177472.8099 -177472.8099 0.0000 17031.5863 -4598.3859 534946.2959 17031.5863 -4598.3859
ENERGY: 980 245.6654 666.8703 2814.5850 0.0000 -204740.7874 23305.4009 31.0830 0.0000 0.0000 -177677.1828 0.0000 -177677.1828 -177677.1828 0.0000 17099.5055 -4576.2995 534946.2959 17099.5055 -4576.2995
ENERGY: 1000 179.8418 677.7207 2814.9340 0.0000 -205229.7653 23528.5195 32.9020 0.0000 0.0000 -177995.8471 0.0000 -177995.8471 -177995.8471 0.0000 17238.9805 -4504.3518 534946.2959 17238.9805 -4504.3518
TCL: Setting parameter constraintScaling to 0
TCL: Minimizing for 5000 steps
ETITLE: TS BOND ANGLE DIHED IMPRP ELECT VDW BOUNDARY MISC KINETIC TOTAL TEMP POTENTIAL TOTAL3 TEMPAVG PRESSURE GPRESSURE VOLUME PRESSAVG GPRESSAVG
ENERGY: 1000 179.8418 677.7207 2814.9340 0.0000 -205229.7653 23528.5195 0.0000 0.0000 0.0000 -178028.7492 0.0000 -178028.7492 -178028.7492 0.0000 17265.2511 -27278.9282 534946.2959 17265.2511 -27278.9282
ENERGY: 2000 168.0429 659.6715 2801.7257 0.0000 -214792.6207 27748.1843 0.0000 0.0000 0.0000 -183414.9964 0.0000 -183414.9964 -183414.9964 0.0000 19503.2735 -3314.4698 534946.2959 19503.2735 -3314.4698
ENERGY: 3000 166.7708 666.4635 2795.9524 0.0000 -217349.0476 28855.6844 0.0000 0.0000 0.0000 -184864.1765 0.0000 -184864.1765 -184864.1765 0.0000 20099.5222 -2711.5310 534946.2959 20099.5222 -2711.5310
ENERGY: 4000 170.5632 667.3870 2788.0431 0.0000 -218820.8206 29455.7911 0.0000 0.0000 0.0000 -185739.0361 0.0000 -185739.0361 -185739.0361 0.0000 20411.8999 -2562.2700 534946.2959 20411.8999 -2562.2700
ENERGY: 5000 167.1524 665.4209 2782.6155 0.0000 -219468.6108 29683.2587 0.0000 0.0000 0.0000 -186170.1632 0.0000 -186170.1632 -186170.1632 0.0000 20519.5298 -2500.7200 534946.2959 20519.5298 -2500.7200
ENERGY: 6000 166.7880 666.9786 2781.3062 0.0000 -219827.7115 29817.7734 0.0000 0.0000 0.0000 -186394.8654 0.0000 -186394.8654 -186394.8654 0.0000 20592.4365 -2460.2902 534946.2959 20592.4365 -2460.2902
