Info: SIMULATION PARAMETERS:
Info: TIMESTEP               1
Info: NUMBER OF STEPS        0
Info: STEPS PER CYCLE        10
Info: PERIODIC CELL BASIS 1  72.449 0 0
Info: PERIODIC CELL BASIS 2  0 93.247 0
Info: PERIODIC CELL BASIS 3  0 0 79.185
Info: PERIODIC CELL CENTER   -0.248 -0.156 -0.047
Info: WRAPPING WATERS AROUND PERIODIC BOUNDARIES ON OUTPUT.
Info: WRAPPING ALL CLUSTERS AROUND PERIODIC BOUNDARIES ON OUTPUT.
Info: FIRST LDB TIMESTEP     50
Info: LAST LDB TIMESTEP     -1
Info: HOM BACKGROUND SCALING 1
Info: PME BACKGROUND SCALING 1
Info: MIN ATOMS PER PATCH    40
Info: VELOCITY FILE          ../replicas/rep68/equilibration/eq1.vel
Info: CENTER OF MASS MOVING INITIALLY? NO
Info: DIELECTRIC             1
Info: EXCLUDE                SCALED ONE-FOUR
Info: 1-4 ELECTROSTATICS SCALED BY 0.833333
Info: MODIFIED 1-4 VDW PARAMETERS WILL BE USED
Info: DCD FILENAME           ../replicas/rep68/equilibration/eq2.dcd
Info: DCD FREQUENCY          5000
Info: DCD FIRST STEP         5000
Info: DCD FILE WILL CONTAIN UNIT CELL DATA
Info: XST FILENAME           ../replicas/rep68/equilibration/eq2.xst
Info: XST FREQUENCY          5000
Info: NO VELOCITY DCD OUTPUT
Info: NO FORCE DCD OUTPUT
Info: OUTPUT FILENAME        ../replicas/rep68/equilibration/eq2
Info: RESTART FILENAME       ../replicas/rep68/equilibration/eq2.restart
Info: RESTART FREQUENCY      5000
Info: BINARY RESTART FILES WILL BE USED
Info: SWITCHING ACTIVE
Info: SWITCHING ON           10
Info: SWITCHING OFF          12
Info: PAIRLIST DISTANCE      13.5
Info: PAIRLIST SHRINK RATE   0.01
Info: PAIRLIST GROW RATE     0.01
Info: PAIRLIST TRIGGER       0.3
Info: PAIRLISTS PER CYCLE    2
Info: PAIRLISTS ENABLED
Info: MARGIN                 0.48
Info: HYDROGEN GROUP CUTOFF  2.5
Info: PATCH DIMENSION        16.48
Info: ENERGY OUTPUT STEPS    500
Info: CROSSTERM ENERGY INCLUDED IN DIHEDRAL
Info: TIMING OUTPUT STEPS    5000
Info: PRESSURE OUTPUT STEPS  500
Info: HARMONIC CONSTRAINTS ACTIVE
Info: HARMONIC CONS EXP      2
Info: HARMONIC CONS SCALING  10
Info: LANGEVIN DYNAMICS ACTIVE
Info: LANGEVIN TEMPERATURE   300
Info: LANGEVIN USING BBK INTEGRATOR
Info: LANGEVIN DAMPING COEFFICIENT IS 5 INVERSE PS
Info: LANGEVIN DYNAMICS NOT APPLIED TO HYDROGENS
Info: BERENDSEN PRESSURE COUPLING ACTIVE
Info:     TARGET PRESSURE IS 1 BAR
Info:     COMPRESSIBILITY ESTIMATE IS 4.57e-05 BAR^(-1)
Info:     RELAXATION TIME IS 100 FS
Info:     APPLIED EVERY 2 STEPS
Info:     PRESSURE CONTROL IS GROUP-BASED
Info:       CELL FLUCTUATION IS ISOTROPIC
Info: PARTICLE MESH EWALD (PME) ACTIVE
Info: PME TOLERANCE               1e-06
Info: PME EWALD COEFFICIENT       0.257952
Info: PME INTERPOLATION ORDER     4
Info: PME GRID DIMENSIONS         80 96 80
Info: PME MAXIMUM GRID SPACING    1
Info: FULL ELECTROSTATIC EVALUATION FREQUENCY      2
Info: USING VERLET I (r-RESPA) MTS SCHEME.
Info: C1 SPLITTING OF LONG RANGE ELECTROSTATICS
Info: PLACING ATOMS IN PATCHES BY HYDROGEN GROUPS
Info: RIGID BONDS TO HYDROGEN : WATER
Info:         ERROR TOLERANCE : 1e-05
Info:          MAX ITERATIONS : 100
Info: RIGID WATER USING SETTLE ALGORITHM
Info: RANDOM NUMBER SEED     1503702283
Info: USE HYDROGEN BONDS?    NO
Info: Using AMBER format force field!
Info: AMBER PARM FILE        ../build/complex.top
Info: COORDINATE PDB         ../replicas/rep68/equilibration/eq1.coor
Info: Exclusions in PARM file will be ignored!
Info: SCNB (VDW SCALING)     2
Info: USING ARITHMETIC MEAN TO COMBINE L-J SIGMA PARAMETERS
Info: SUMMARY OF PARAMETERS:
Info: 71 BONDS
Info: 145 ANGLES
Info: 76 DIHEDRAL
Info: 0 IMPROPER
Info: 0 CROSSTERM
Info: 0 VDW
Info: 190 VDW_PAIRS
Info: 0 NBTHOLE_PAIRS
Info: STRUCTURE SUMMARY:
Info: 49394 ATOMS
Info: 49448 BONDS
Info: 8698 ANGLES
Info: 18780 DIHEDRALS
Info: 0 IMPROPERS
Info: 0 CROSSTERMS
Info: 0 EXCLUSIONS
Info: 2336 CONSTRAINTS
Info: 44667 RIGID BONDS
Info: 103515 DEGREES OF FREEDOM
Info: 17225 HYDROGEN GROUPS
Info: 4 ATOMS IN LARGEST HYDROGEN GROUP
Info: 17225 MIGRATION GROUPS
Info: 4 ATOMS IN LARGEST MIGRATION GROUP
Info: TOTAL MASS = 301478 amu
Info: TOTAL CHARGE = 1.00115e-05 e
Info: MASS DENSITY = 0.935846 g/cm^3
Info: ATOM DENSITY = 0.0923345 atoms/A^3
Info: ADDED 70656 IMPLICIT EXCLUSIONS
Info: NONBONDED TABLE R-SQUARED SPACING: 0.0625
Info: NONBONDED TABLE SIZE: 769 POINTS
Info: REMOVING COM VELOCITY -0.0108121 0.0103997 0.0102564
TCL: Running for 5000 steps
ETITLE: TS BOND ANGLE DIHED IMPRP ELECT VDW BOUNDARY MISC KINETIC TOTAL TEMP POTENTIAL TOTAL3 TEMPAVG PRESSURE GPRESSURE VOLUME PRESSAVG GPRESSAVG
ENERGY: 0 375.7191 1233.9807 2923.7110 0.0000 -212539.5290 29408.9056 0.0000 0.0000 10119.2459 -168477.9667 98.3864 -178597.2126 -168468.3133 98.3864 -2356.7681 -2452.8029 534946.2959 -2356.7681 -2452.8029
ENERGY: 1000 1239.2414 1980.3457 3092.8505 0.0000 -193726.0510 26550.6010 791.2559 0.0000 24229.6511 -135842.1056 235.5777 -160071.7566 -135816.1004 218.6193 -62.3507 -32.5835 521830.3653 -10.0541 -10.5161
ENERGY: 2000 1433.3603 2100.7254 3123.2173 0.0000 -183913.2256 23199.2762 800.0177 0.0000 27664.6558 -125591.9730 268.9753 -153256.6287 -125551.6046 263.7576 111.0326 16.2422 515460.9414 -30.4763 -31.5095
ENERGY: 3000 1536.2530 2129.7628 3136.0156 0.0000 -179492.6177 21743.9346 792.3664 0.0000 29420.5468 -120733.7385 286.0473 -150154.2853 -120699.2504 283.9151 -16.4102 -39.6452 511469.5947 -17.2796 -17.3371
ENERGY: 4000 1508.6844 2225.1962 3137.0461 0.0000 -177277.6104 20945.4375 769.9218 0.0000 30253.1790 -118438.1454 294.1427 -148691.3245 -118395.1578 292.8921 26.5155 -12.9913 508489.3503 0.6064 0.4337
ENERGY: 5000 1591.7051 2241.9776 3131.6587 0.0000 -175881.0169 20334.1137 810.1231 0.0000 30691.7414 -117079.6973 298.4067 -147771.4388 -117042.6620 297.7602 -80.4840 13.7664 505271.8664 -6.5620 -6.0314
TCL: Setting parameter constraintScaling to 5.0
TCL: Running for 5000 steps
ETITLE: TS BOND ANGLE DIHED IMPRP ELECT VDW BOUNDARY MISC KINETIC TOTAL TEMP POTENTIAL TOTAL3 TEMPAVG PRESSURE GPRESSURE VOLUME PRESSAVG GPRESSAVG
ENERGY: 5000 1591.7051 2241.9776 3131.6587 0.0000 -175881.0169 20334.1137 405.0615 0.0000 30689.6911 -117486.8092 298.3868 -148176.5003 -117447.7282 298.3868 -162.6847 -69.8753 505271.8664 -162.6847 -69.8753
ENERGY: 6000 1577.3392 2301.5735 3178.6310 0.0000 -175604.2247 20344.9698 658.0521 0.0000 30581.8104 -116961.8486 297.3379 -147543.6590 -116910.6207 298.6453 44.5992 37.2438 502697.1746 -6.5207 -6.2144
ENERGY: 7000 1560.1280 2326.7905 3150.3511 0.0000 -175458.3273 20190.0470 650.3072 0.0000 30709.6884 -116871.0150 298.5812 -147580.7034 -116826.9902 299.1471 -39.8413 55.9292 502224.7221 -5.5696 -5.9583
ENERGY: 8000 1586.6038 2346.0769 3167.7744 0.0000 -175051.4301 19931.7154 621.2384 0.0000 30822.0698 -116575.9514 299.6739 -147398.0213 -116531.0242 299.4380 17.6055 -57.1199 503005.9146 0.5908 0.5712
ENERGY: 9000 1568.7063 2352.0971 3152.7418 0.0000 -175451.1971 20126.9630 659.1795 0.0000 30910.2985 -116681.2110 300.5317 -147591.5094 -116634.2914 300.5052 51.0656 41.7469 501645.0012 -6.2631 -6.0088
ENERGY: 10000 1589.3123 2327.2472 3134.3230 0.0000 -175521.6264 20174.1861 648.1157 0.0000 30901.2762 -116747.1658 300.4440 -147648.4421 -116697.8526 300.8898 -120.4645 0.8704 500648.4822 -0.2568 -0.1045
TCL: Setting parameter constraintScaling to 2.5
TCL: Running for 5000 steps
ETITLE: TS BOND ANGLE DIHED IMPRP ELECT VDW BOUNDARY MISC KINETIC TOTAL TEMP POTENTIAL TOTAL3 TEMPAVG PRESSURE GPRESSURE VOLUME PRESSAVG GPRESSAVG
ENERGY: 10000 1589.3123 2327.2472 3134.3230 0.0000 -175521.6264 20174.1861 324.0579 0.0000 30899.2561 -117073.2438 300.4243 -147972.4999 -117030.8154 300.4243 -141.6783 -18.9205 500648.4822 -141.6783 -18.9205
ENERGY: 11000 1572.3220 2327.0629 3175.4060 0.0000 -175865.1487 20286.9111 487.0238 0.0000 30942.0481 -117074.3747 300.8404 -148016.4228 -117018.6458 299.8789 -36.8008 -62.3111 500278.1187 -6.5121 -5.7280
ENERGY: 12000 1598.4780 2344.8986 3179.6886 0.0000 -175486.0895 19788.3024 505.3583 0.0000 30909.9558 -117159.4078 300.5284 -148069.3636 -117110.2710 300.5000 115.3732 7.1641 499468.1197 -0.9514 -1.0853
ENERGY: 13000 1636.1711 2359.0489 3184.8423 0.0000 -175481.8376 19972.0228 502.3310 0.0000 30967.0599 -116860.3616 301.0836 -147827.4215 -116810.0713 299.8660 -49.7407 -22.0441 500082.9685 14.0793 13.4131
ENERGY: 14000 1593.9319 2388.8154 3219.3670 0.0000 -175918.2484 20243.2424 503.6654 0.0000 31014.8876 -116954.3387 301.5486 -147969.2263 -116910.9558 300.1470 -47.8195 41.1603 498864.5777 -11.4040 -11.3384
ENERGY: 15000 1667.9660 2287.9303 3181.3847 0.0000 -175522.1441 20046.0642 498.3977 0.0000 30985.5570 -116854.8441 301.2634 -147840.4012 -116820.2426 300.3139 -107.8577 -24.2480 499377.2859 4.3132 3.8885
TCL: Setting parameter constraintScaling to 1.25
TCL: Running for 5000 steps
ETITLE: TS BOND ANGLE DIHED IMPRP ELECT VDW BOUNDARY MISC KINETIC TOTAL TEMP POTENTIAL TOTAL3 TEMPAVG PRESSURE GPRESSURE VOLUME PRESSAVG GPRESSAVG
ENERGY: 15000 1667.9660 2287.9303 3181.3847 0.0000 -175522.1441 20046.0642 249.1988 0.0000 30983.4935 -117106.1065 301.2434 -148089.6000 -117066.6186 301.2434 -164.7640 -80.5800 499377.2859 -164.7640 -80.5800
ENERGY: 16000 1642.7704 2307.0146 3191.4458 0.0000 -175295.2579 19996.0186 412.2293 0.0000 30895.1721 -116850.6070 300.3846 -147745.7791 -116786.7987 301.2770 85.3639 19.3226 499595.9815 0.1704 0.2206
ENERGY: 17000 1602.8514 2444.6939 3227.4406 0.0000 -175811.5694 20040.3946 401.4621 0.0000 30816.9744 -117277.7524 299.6243 -148094.7268 -117231.6632 300.8695 82.9681 76.1861 498582.9339 -8.9316 -8.5628
ENERGY: 18000 1687.2003 2384.4836 3221.0491 0.0000 -175587.7240 19970.0297 387.4926 0.0000 30977.5458 -116959.9228 301.1855 -147937.4687 -116905.6949 299.9805 -53.0667 57.6627 499210.9695 8.5214 8.3122
ENERGY: 19000 1666.9312 2379.7518 3184.9630 0.0000 -176008.9077 20181.8131 373.5546 0.0000 30868.6714 -117353.2226 300.1270 -148221.8940 -117309.5790 298.9655 -75.2561 -93.8542 497835.8156 0.4552 0.6613
ENERGY: 20000 1637.8938 2375.9946 3221.1953 0.0000 -175593.0709 19783.5825 412.5429 0.0000 30852.0855 -117309.7763 299.9657 -148161.8618 -117262.1452 299.3041 -62.4012 -7.0796 499189.1233 14.0810 14.3961
TCL: Setting parameter constraintScaling to 0.625
TCL: Running for 5000 steps
ETITLE: TS BOND ANGLE DIHED IMPRP ELECT VDW BOUNDARY MISC KINETIC TOTAL TEMP POTENTIAL TOTAL3 TEMPAVG PRESSURE GPRESSURE VOLUME PRESSAVG GPRESSAVG
ENERGY: 20000 1637.8938 2375.9946 3221.1953 0.0000 -175593.0709 19783.5825 206.2715 0.0000 30850.0183 -117518.1149 299.9456 -148368.1332 -117473.7752 299.9456 -179.8578 -122.2458 499189.1233 -179.8578 -122.2458
ENERGY: 21000 1665.5682 2415.7277 3192.7511 0.0000 -175478.1456 20140.2213 293.0918 0.0000 30804.7587 -116966.0267 299.5056 -147770.7854 -116913.2249 300.6294 -4.2364 59.0633 499096.7813 13.9323 13.9887
ENERGY: 22000 1716.1029 2437.3460 3198.0796 0.0000 -175592.1915 20139.1386 308.1523 0.0000 30741.0988 -117052.2733 298.8866 -147793.3720 -117021.9021 300.0323 -9.3784 37.5050 498204.5946 0.0440 -0.0241
ENERGY: 23000 1671.4424 2422.9877 3175.5143 0.0000 -175868.4863 20047.2555 310.8601 0.0000 30745.1815 -117495.2449 298.9263 -148240.4264 -117453.7713 300.4950 74.4587 94.5256 498910.9609 2.9898 2.2106
ENERGY: 24000 1632.7770 2365.7211 3193.2834 0.0000 -175449.6022 19833.3960 331.3386 0.0000 30622.2464 -117470.8397 297.7311 -148093.0861 -117440.1780 298.5771 -101.9307 -28.5167 498260.7443 -5.4424 -5.9756
ENERGY: 25000 1612.7902 2420.6808 3179.3903 0.0000 -175647.0724 19840.3913 309.6761 0.0000 30988.7606 -117295.3832 301.2946 -148284.1437 -117240.5994 299.2302 -103.6082 -44.1076 498877.3000 5.8276 5.8133
TCL: Setting parameter constraintScaling to 0.3125
TCL: Running for 5000 steps
ETITLE: TS BOND ANGLE DIHED IMPRP ELECT VDW BOUNDARY MISC KINETIC TOTAL TEMP POTENTIAL TOTAL3 TEMPAVG PRESSURE GPRESSURE VOLUME PRESSAVG GPRESSAVG
ENERGY: 25000 1612.7902 2420.6808 3179.3903 0.0000 -175647.0724 19840.3913 154.8380 0.0000 30986.7036 -117452.2782 301.2746 -148438.9818 -117410.9605 301.2746 -114.8573 -56.2861 498877.3000 -114.8573 -56.2861
ENERGY: 26000 1568.7521 2361.0766 3207.6011 0.0000 -175548.7949 19954.5789 237.7457 0.0000 31096.9841 -117122.0565 302.3468 -148219.0406 -117073.2349 300.4596 6.8607 59.9071 499618.3245 9.0942 9.3289
ENERGY: 27000 1611.1002 2365.8899 3205.8248 0.0000 -175465.7044 19952.0679 254.6728 0.0000 30813.3910 -117262.7578 299.5895 -148076.1488 -117217.1756 300.0169 -5.1274 -19.7206 498505.0504 -6.0731 -6.5451
ENERGY: 28000 1666.2174 2401.6814 3226.2844 0.0000 -175706.9586 19972.0423 245.7594 0.0000 30690.2704 -117504.7032 298.3924 -148194.9737 -117459.6506 299.7520 -88.1086 -91.6527 498113.7962 -4.5965 -5.3522
ENERGY: 29000 1578.2871 2413.9698 3200.3298 0.0000 -175767.1569 20045.0981 254.3042 0.0000 30592.2036 -117682.9642 297.4390 -148275.1679 -117641.7133 298.9053 -14.6616 -43.4528 497876.0910 -1.4329 -1.7364
ENERGY: 30000 1622.2727 2378.6394 3211.4360 0.0000 -175944.9482 20024.1254 268.6466 0.0000 30622.4528 -117817.3753 297.7331 -148439.8281 -117771.9864 298.3254 -148.7173 -88.8491 496891.0277 -7.7702 -8.0151
TCL: Setting parameter constraintScaling to 0.15625
TCL: Running for 5000 steps
ETITLE: TS BOND ANGLE DIHED IMPRP ELECT VDW BOUNDARY MISC KINETIC TOTAL TEMP POTENTIAL TOTAL3 TEMPAVG PRESSURE GPRESSURE VOLUME PRESSAVG GPRESSAVG
ENERGY: 30000 1622.2727 2378.6394 3211.4360 0.0000 -175944.9482 20024.1254 134.3233 0.0000 30620.4036 -117953.7478 297.7131 -148574.1514 -117908.9801 297.7131 -195.9484 -129.5916 496891.0277 -195.9484 -129.5916
ENERGY: 31000 1650.5934 2450.4116 3195.2581 0.0000 -175931.2540 20071.1670 187.8078 0.0000 30761.5821 -117614.4340 299.0858 -148376.0161 -117576.2345 299.2305 -27.4832 -77.3742 497472.5584 7.5947 7.1925
ENERGY: 32000 1645.4102 2404.9321 3179.9086 0.0000 -175996.8614 20050.3802 206.9640 0.0000 30522.3616 -117986.9046 296.7599 -148509.2662 -117936.5134 298.6978 138.4788 20.4834 498897.1509 1.2823 0.5929
ENERGY: 33000 1633.8006 2376.7755 3195.1597 0.0000 -176606.6479 20350.9521 196.9896 0.0000 30846.0785 -118006.8921 299.9073 -148852.9706 -117952.6133 298.0321 48.6283 51.2408 498598.8812 0.1693 -0.3420
ENERGY: 34000 1612.9382 2428.6083 3220.4924 0.0000 -176283.7703 20117.6812 215.4591 0.0000 30749.9462 -117938.6448 298.9726 -148688.5911 -117894.3246 297.8504 -66.3756 -0.7111 495698.8242 -9.7368 -9.7571
ENERGY: 35000 1608.2142 2417.8637 3218.1790 0.0000 -176233.4497 20076.5117 205.7697 0.0000 30793.9022 -117913.0091 299.4000 -148706.9113 -117876.8260 298.3865 -5.7978 -1.6896 495681.2050 -3.3234 -3.5667
TCL: Setting parameter constraintScaling to 0.078125
TCL: Running for 5000 steps
ETITLE: TS BOND ANGLE DIHED IMPRP ELECT VDW BOUNDARY MISC KINETIC TOTAL TEMP POTENTIAL TOTAL3 TEMPAVG PRESSURE GPRESSURE VOLUME PRESSAVG GPRESSAVG
ENERGY: 35000 1608.2142 2417.8637 3218.1790 0.0000 -176233.4497 20076.5117 102.8849 0.0000 30791.8361 -118017.9601 299.3799 -148809.7962 -117977.9773 299.3799 -23.0780 -11.8203 495681.2050 -23.0780 -11.8203
ENERGY: 36000 1644.3099 2329.5070 3202.1330 0.0000 -176124.8308 20159.7013 154.2779 0.0000 30777.1253 -117857.7764 299.2369 -148634.9017 -117817.7564 299.0627 5.9636 36.0549 497025.0756 9.4849 9.2069
ENERGY: 37000 1609.8702 2418.2345 3207.3287 0.0000 -176279.8176 20269.1176 152.3394 0.0000 30641.8605 -117981.0667 297.9218 -148622.9271 -117934.1190 298.6688 -82.9227 -20.9129 496975.4263 1.5321 1.3806
ENERGY: 38000 1672.7791 2350.6767 3221.0295 0.0000 -176060.1484 20018.5668 162.0860 0.0000 30613.6812 -118021.3291 297.6478 -148635.0103 -117969.4999 297.9943 -20.6122 -62.6960 497740.9993 13.8482 13.8605
ENERGY: 39000 1622.1149 2387.2475 3179.2210 0.0000 -175991.0973 20261.2709 158.5297 0.0000 30615.0245 -117767.6888 297.6608 -148382.7134 -117724.4363 298.7294 33.3233 52.0412 496583.7512 -6.7632 -6.6271
ENERGY: 40000 1630.3627 2343.2401 3198.8678 0.0000 -176236.3440 20046.8175 150.4634 0.0000 30668.9763 -118197.6162 298.1854 -148866.5925 -118149.7272 297.4174 -249.5505 -164.7029 496338.1493 -10.4098 -10.1975
TCL: Setting parameter constraintScaling to 0.0390625
TCL: Running for 5000 steps
ETITLE: TS BOND ANGLE DIHED IMPRP ELECT VDW BOUNDARY MISC KINETIC TOTAL TEMP POTENTIAL TOTAL3 TEMPAVG PRESSURE GPRESSURE VOLUME PRESSAVG GPRESSAVG
ENERGY: 40000 1630.3627 2343.2401 3198.8678 0.0000 -176236.3440 20046.8175 75.2317 0.0000 30666.9231 -118274.9012 298.1654 -148941.8242 -118231.7929 298.1654 -240.3680 -159.3623 496338.1493 -240.3680 -159.3623
ENERGY: 41000 1604.7023 2416.7822 3191.2648 0.0000 -176301.2799 20197.1195 95.5522 0.0000 30828.8268 -117967.0321 299.7396 -148795.8589 -117930.5390 297.7028 -0.1201 -62.9475 496115.6002 7.3490 7.4353
ENERGY: 42000 1614.1981 2395.0204 3232.7298 0.0000 -176189.4006 20142.8104 110.3795 0.0000 30700.1500 -117994.1125 298.4885 -148694.2625 -117944.2861 297.6547 31.6256 20.5673 496818.2978 4.8773 4.8974
ENERGY: 43000 1640.7059 2336.4035 3242.7738 0.0000 -175929.1450 20076.9936 107.2862 0.0000 30702.1888 -117822.7931 298.5083 -148524.9820 -117780.2411 299.5883 46.7299 17.9220 496490.6959 -2.5711 -2.8181
ENERGY: 44000 1639.0491 2423.6322 3202.3118 0.0000 -176058.5774 20044.2336 115.6835 0.0000 30932.7968 -117700.8704 300.7505 -148633.6672 -117666.5788 299.2103 -70.4465 -18.1274 497037.9519 7.1941 7.5960
ENERGY: 45000 1626.8159 2399.7383 3197.3635 0.0000 -175943.3378 19949.9242 111.7647 0.0000 30880.4824 -117777.2488 300.2418 -148657.7311 -117728.5764 300.2878 60.5944 57.7466 496430.9066 -14.0556 -13.5932
TCL: Setting parameter constraintScaling to 0.01953125
TCL: Running for 5000 steps
ETITLE: TS BOND ANGLE DIHED IMPRP ELECT VDW BOUNDARY MISC KINETIC TOTAL TEMP POTENTIAL TOTAL3 TEMPAVG PRESSURE GPRESSURE VOLUME PRESSAVG GPRESSAVG
ENERGY: 45000 1626.8159 2399.7383 3197.3635 0.0000 -175943.3378 19949.9242 55.8824 0.0000 30878.4138 -117835.1997 300.2217 -148713.6135 -117790.4312 300.2217 49.7523 46.2198 496430.9066 49.7523 46.2198
ENERGY: 46000 1626.8216 2412.0453 3195.9315 0.0000 -176086.9879 20226.7838 74.1161 0.0000 30799.1377 -117752.1521 299.4509 -148551.2897 -117700.3854 299.0780 146.0807 141.1104 495255.9706 -7.1098 -7.0754
ENERGY: 47000 1646.7607 2357.8388 3192.8126 0.0000 -175947.2838 20062.6935 79.2402 0.0000 31158.3807 -117449.5573 302.9437 -148607.9380 -117403.7172 300.8758 -22.3500 49.4517 497593.3859 -1.5820 -1.5048
ENERGY: 48000 1653.6408 2377.9416 3224.3877 0.0000 -175690.8907 20105.5979 80.8170 0.0000 30826.3630 -117422.1426 299.7156 -148248.5056 -117367.9743 299.6253 -109.0053 -52.4948 498644.3437 -2.0996 -1.8106
ENERGY: 49000 1623.0881 2369.3378 3215.3372 0.0000 -175811.3537 20069.8901 78.9786 0.0000 30792.7939 -117661.9280 299.3892 -148454.7219 -117623.8090 299.5297 21.2010 8.9610 497124.8296 -8.0877 -8.0642
ENERGY: 50000 1563.3173 2413.8999 3204.3625 0.0000 -175521.3001 20037.8534 80.7852 0.0000 30754.5068 -117466.5751 299.0170 -148221.0818 -117423.4828 300.5943 100.9488 137.5285 498393.1820 7.1141 7.0941
TCL: Setting parameter constraintScaling to 0
TCL: Running for 5000 steps
ETITLE: TS BOND ANGLE DIHED IMPRP ELECT VDW BOUNDARY MISC KINETIC TOTAL TEMP POTENTIAL TOTAL3 TEMPAVG PRESSURE GPRESSURE VOLUME PRESSAVG GPRESSAVG
ENERGY: 50000 1563.3173 2413.8999 3204.3625 0.0000 -175521.3001 20037.8534 0.0000 0.0000 30752.4363 -117549.4307 298.9969 -148301.8670 -117510.3117 298.9969 70.3662 118.1461 498393.1820 70.3662 118.1461
ENERGY: 51000 1631.3482 2342.2305 3234.1374 0.0000 -175542.4653 19842.7731 0.0000 0.0000 30916.3173 -117575.6587 300.5902 -148491.9761 -117527.8576 300.3409 -91.9131 -48.0306 495712.7221 -25.2027 -25.9177
ENERGY: 52000 1626.0001 2404.6020 3229.8113 0.0000 -175685.2646 20109.4396 0.0000 0.0000 30573.2306 -117742.1810 297.2545 -148315.4116 -117693.3360 299.0415 86.0783 82.7682 496943.9833 11.0672 10.6611
ENERGY: 53000 1625.0273 2383.1705 3229.6356 0.0000 -175696.7785 20037.8774 0.0000 0.0000 30804.2113 -117616.8564 299.5003 -148421.0677 -117570.8678 299.6377 58.3815 70.7524 496695.6617 7.4093 6.9698
ENERGY: 54000 1627.9903 2339.9677 3211.7090 0.0000 -176155.4209 20196.3612 0.0000 0.0000 30743.1377 -118036.2551 298.9065 -148779.3927 -117999.2234 298.7549 -109.4082 -38.4173 495973.9615 -7.1693 -7.1652
ENERGY: 55000 1674.4796 2386.4901 3220.8895 0.0000 -175865.6379 19923.8312 0.0000 0.0000 30850.6115 -117809.3360 299.9514 -148659.9475 -117763.2710 299.5207 -71.7635 -25.5797 497206.6350 3.4600 3.3327
