Info: SIMULATION PARAMETERS:
Info: TIMESTEP               2
Info: NUMBER OF STEPS        0
Info: STEPS PER CYCLE        10
Info: PERIODIC CELL BASIS 1  72.449 0 0
Info: PERIODIC CELL BASIS 2  0 93.247 0
Info: PERIODIC CELL BASIS 3  0 0 79.185
Info: PERIODIC CELL CENTER   -0.248 -0.156 -0.047
Info: WRAPPING WATERS AROUND PERIODIC BOUNDARIES ON OUTPUT.
Info: WRAPPING ALL CLUSTERS AROUND PERIODIC BOUNDARIES ON OUTPUT.
Info: FIRST LDB TIMESTEP     50
Info: LAST LDB TIMESTEP     -1
Info: HOM BACKGROUND SCALING 1
Info: PME BACKGROUND SCALING 1
Info: MIN ATOMS PER PATCH    40
Info: INITIAL TEMPERATURE    0
Info: CENTER OF MASS MOVING INITIALLY? NO
Info: DIELECTRIC             1
Info: EXCLUDE                SCALED ONE-FOUR
Info: 1-4 ELECTROSTATICS SCALED BY 0.833333
Info: MODIFIED 1-4 VDW PARAMETERS WILL BE USED
Info: NO DCD TRAJECTORY OUTPUT
Info: NO EXTENDED SYSTEM TRAJECTORY OUTPUT
Info: NO VELOCITY DCD OUTPUT
Info: NO FORCE DCD OUTPUT
Info: OUTPUT FILENAME        ../replicas/rep97/equilibration/eq0
Info: NO RESTART FILE
Info: SWITCHING ACTIVE
Info: SWITCHING ON           10
Info: SWITCHING OFF          12
Info: PAIRLIST DISTANCE      13.5
Info: PAIRLIST SHRINK RATE   0.01
Info: PAIRLIST GROW RATE     0.01
Info: PAIRLIST TRIGGER       0.3
Info: PAIRLISTS PER CYCLE    2
Info: PAIRLISTS ENABLED
Info: MARGIN                 0
Info: HYDROGEN GROUP CUTOFF  2.5
Info: PATCH DIMENSION        16
Info: ENERGY OUTPUT STEPS    500
Info: CROSSTERM ENERGY INCLUDED IN DIHEDRAL
Info: TIMING OUTPUT STEPS    5000
Info: PRESSURE OUTPUT STEPS  500
Info: HARMONIC CONSTRAINTS ACTIVE
Info: HARMONIC CONS EXP      2
Info: HARMONIC CONS SCALING  10
Info: CONJUGATE GRADIENT MINIMIZATION ACTIVE
Info: LINE MINIMIZATION GOAL = 0.001
Info: BABY STEP SIZE = 0.01
Info: TINY STEP SIZE = 1e-06
Info: PARTICLE MESH EWALD (PME) ACTIVE
Info: PME TOLERANCE               1e-06
Info: PME EWALD COEFFICIENT       0.257952
Info: PME INTERPOLATION ORDER     4
Info: PME GRID DIMENSIONS         80 96 80
Info: PME MAXIMUM GRID SPACING    1
Info: FULL ELECTROSTATIC EVALUATION FREQUENCY      2
Info: USING VERLET I (r-RESPA) MTS SCHEME.
Info: C1 SPLITTING OF LONG RANGE ELECTROSTATICS
Info: PLACING ATOMS IN PATCHES BY HYDROGEN GROUPS
Info: RIGID BONDS TO HYDROGEN : ALL
Info:         ERROR TOLERANCE : 1e-05
Info:          MAX ITERATIONS : 100
Info: RIGID WATER USING SETTLE ALGORITHM
Info: RANDOM NUMBER SEED     1503700872
Info: USE HYDROGEN BONDS?    NO
Info: Using AMBER format force field!
Info: AMBER PARM FILE        ../build/complex.top
Info: COORDINATE PDB         ../build/complex.pdb
Info: Exclusions in PARM file will be ignored!
Info: SCNB (VDW SCALING)     2
Info: USING ARITHMETIC MEAN TO COMBINE L-J SIGMA PARAMETERS
Info: SUMMARY OF PARAMETERS:
Info: 71 BONDS
Info: 145 ANGLES
Info: 76 DIHEDRAL
Info: 0 IMPROPER
Info: 0 CROSSTERM
Info: 0 VDW
Info: 190 VDW_PAIRS
Info: 0 NBTHOLE_PAIRS
Info: STRUCTURE SUMMARY:
Info: 49394 ATOMS
Info: 49448 BONDS
Info: 8698 ANGLES
Info: 18780 DIHEDRALS
Info: 0 IMPROPERS
Info: 0 CROSSTERMS
Info: 0 EXCLUSIONS
Info: 2336 CONSTRAINTS
Info: 47058 RIGID BONDS
Info: 101124 DEGREES OF FREEDOM
Info: 17225 HYDROGEN GROUPS
Info: 4 ATOMS IN LARGEST HYDROGEN GROUP
Info: 17225 MIGRATION GROUPS
Info: 4 ATOMS IN LARGEST MIGRATION GROUP
Info: TOTAL MASS = 301478 amu
Info: TOTAL CHARGE = 1.00115e-05 e
Info: MASS DENSITY = 0.935846 g/cm^3
Info: ATOM DENSITY = 0.0923345 atoms/A^3
Info: ADDED 70656 IMPLICIT EXCLUSIONS
Info: NONBONDED TABLE R-SQUARED SPACING: 0.0625
Info: NONBONDED TABLE SIZE: 769 POINTS
Info: REMOVING COM VELOCITY 0 0 0
TCL: Minimizing for 100 steps
ETITLE: TS BOND ANGLE DIHED IMPRP ELECT VDW BOUNDARY MISC KINETIC TOTAL TEMP POTENTIAL TOTAL3 TEMPAVG PRESSURE GPRESSURE VOLUME PRESSAVG GPRESSAVG
ENERGY: 0 155.4176 1012.2698 2855.7272 0.0000 -154496.7912 207729.2052 0.0468 0.0000 0.0000 57255.8754 0.0000 57255.8754 57255.8754 0.0000 116350.2532 86546.1670 534946.2959 116350.2532 86546.1670
ENERGY: 20 304.7560 935.7912 2893.4663 0.0000 -158672.9413 17936.6590 143.9455 0.0000 0.0000 -136458.3233 0.0000 -136458.3233 -136458.3233 0.0000 16523.9383 -239.4563 534946.2959 16523.9383 -239.4563
ENERGY: 40 198.7446 799.5728 2896.9273 0.0000 -162811.4524 16417.9539 221.3030 0.0000 0.0000 -142276.9508 0.0000 -142276.9508 -142276.9508 0.0000 15011.2705 -2135.4695 534946.2959 15011.2705 -2135.4695
ENERGY: 60 130.5283 715.3440 2898.2166 0.0000 -167496.1557 15446.7541 315.2796 0.0000 0.0000 -147990.0331 0.0000 -147990.0331 -147990.0331 0.0000 13793.8840 -3799.3983 534946.2959 13793.8840 -3799.3983
ENERGY: 80 431.2717 765.6305 2904.3786 0.0000 -169937.5260 15121.1527 372.0122 0.0000 0.0000 -150343.0803 0.0000 -150343.0803 -150343.0803 0.0000 13270.3316 -4577.2434 534946.2959 13270.3316 -4577.2434
ENERGY: 100 129.7144 708.0651 2904.2781 0.0000 -171050.0683 15018.6530 384.2001 0.0000 0.0000 -151905.1576 0.0000 -151905.1576 -151905.1576 0.0000 13092.9123 -4843.6323 534946.2959 13092.9123 -4843.6323
TCL: Setting parameter constraintScaling to 5.0
TCL: Minimizing for 100 steps
ETITLE: TS BOND ANGLE DIHED IMPRP ELECT VDW BOUNDARY MISC KINETIC TOTAL TEMP POTENTIAL TOTAL3 TEMPAVG PRESSURE GPRESSURE VOLUME PRESSAVG GPRESSAVG
ENERGY: 100 129.7144 708.0651 2904.2781 0.0000 -171050.0682 15018.6530 192.1000 0.0000 0.0000 -152097.2576 0.0000 -152097.2576 -152097.2576 0.0000 13703.5075 -22944.4554 534946.2959 13703.5075 -22944.4554
ENERGY: 120 118.6819 680.2876 2909.9066 0.0000 -172396.3180 14830.1202 259.9550 0.0000 0.0000 -153597.3668 0.0000 -153597.3668 -153597.3668 0.0000 13320.9466 -4756.3084 534946.2959 13320.9466 -4756.3084
ENERGY: 140 109.1483 671.1465 2912.0864 0.0000 -174830.2941 14716.1436 337.7317 0.0000 0.0000 -156084.0376 0.0000 -156084.0376 -156084.0376 0.0000 12908.9545 -5423.1541 534946.2959 12908.9545 -5423.1541
ENERGY: 160 303.0057 691.2556 2915.1768 0.0000 -176082.5131 14739.2612 369.8369 0.0000 0.0000 -157063.9769 0.0000 -157063.9769 -157063.9769 0.0000 12780.5574 -5681.0138 534946.2959 12780.5574 -5681.0138
ENERGY: 180 182.1918 640.7504 2917.0631 0.0000 -177289.3533 14805.0528 391.8962 0.0000 0.0000 -158352.3990 0.0000 -158352.3990 -158352.3990 0.0000 12715.3629 -5870.2693 534946.2959 12715.3629 -5870.2693
ENERGY: 200 200.8147 672.8135 2923.8884 0.0000 -179263.1048 15029.6874 438.8859 0.0000 0.0000 -159997.0149 0.0000 -159997.0149 -159997.0149 0.0000 12652.1266 -6146.3888 534946.2959 12652.1266 -6146.3888
TCL: Setting parameter constraintScaling to 2.5
TCL: Minimizing for 100 steps
ETITLE: TS BOND ANGLE DIHED IMPRP ELECT VDW BOUNDARY MISC KINETIC TOTAL TEMP POTENTIAL TOTAL3 TEMPAVG PRESSURE GPRESSURE VOLUME PRESSAVG GPRESSAVG
ENERGY: 200 200.8147 672.8135 2923.8884 0.0000 -179263.1048 15029.6874 219.4429 0.0000 0.0000 -160216.4579 0.0000 -160216.4579 -160216.4579 0.0000 13194.5965 -25231.4196 534946.2959 13194.5965 -25231.4196
ENERGY: 220 129.4385 648.4239 2922.2172 0.0000 -180050.6038 15072.6109 269.1080 0.0000 0.0000 -161008.8055 0.0000 -161008.8055 -161008.8055 0.0000 13073.4329 -5820.1854 534946.2959 13073.4329 -5820.1854
ENERGY: 240 148.7046 630.0484 2922.2766 0.0000 -182011.2003 15361.3084 366.0684 0.0000 0.0000 -162582.7940 0.0000 -162582.7940 -162582.7940 0.0000 12907.0104 -6172.9200 534946.2959 12907.0104 -6172.9200
ENERGY: 260 225.6660 662.3411 2925.6672 0.0000 -183828.3847 15792.3749 453.5092 0.0000 0.0000 -163768.8264 0.0000 -163768.8264 -163768.8264 0.0000 12946.2675 -6345.7186 534946.2959 12946.2675 -6345.7186
ENERGY: 280 209.8522 656.3781 2926.5578 0.0000 -186046.4017 16591.1959 535.7739 0.0000 0.0000 -165126.6439 0.0000 -165126.6439 -165126.6439 0.0000 13154.7498 -6363.9679 534946.2959 13154.7498 -6363.9679
ENERGY: 300 129.0443 634.3725 2921.8457 0.0000 -187695.2509 17313.1483 557.2673 0.0000 0.0000 -166139.5728 0.0000 -166139.5728 -166139.5728 0.0000 13542.8693 -6169.3676 534946.2959 13542.8693 -6169.3676
TCL: Setting parameter constraintScaling to 1.25
TCL: Minimizing for 100 steps
ETITLE: TS BOND ANGLE DIHED IMPRP ELECT VDW BOUNDARY MISC KINETIC TOTAL TEMP POTENTIAL TOTAL3 TEMPAVG PRESSURE GPRESSURE VOLUME PRESSAVG GPRESSAVG
ENERGY: 300 129.0443 634.3725 2921.8457 0.0000 -187695.2509 17313.1483 278.6336 0.0000 0.0000 -166418.2064 0.0000 -166418.2064 -166418.2064 0.0000 14034.1610 -26320.9346 534946.2959 14034.1610 -26320.9346
ENERGY: 320 135.9947 632.7881 2912.4173 0.0000 -188177.8138 17272.9700 319.0605 0.0000 0.0000 -166904.5831 0.0000 -166904.5831 -166904.5831 0.0000 13914.9046 -5863.6074 534946.2959 13914.9046 -5863.6074
ENERGY: 340 410.7633 660.9800 2903.8575 0.0000 -189805.8203 17633.7779 384.8340 0.0000 0.0000 -167811.6076 0.0000 -167811.6076 -167811.6076 0.0000 13909.5168 -6044.0688 534946.2959 13909.5168 -6044.0688
ENERGY: 360 179.6333 633.6344 2904.8329 0.0000 -190234.6460 17809.1815 378.2439 0.0000 0.0000 -168329.1198 0.0000 -168329.1198 -168329.1198 0.0000 14017.6130 -5982.5571 534946.2959 14017.6130 -5982.5571
ENERGY: 380 139.6427 659.0696 2905.0442 0.0000 -191655.7341 18465.5881 374.3624 0.0000 0.0000 -169112.0270 0.0000 -169112.0270 -169112.0270 0.0000 14430.6270 -5754.1994 534946.2959 14430.6270 -5754.1994
ENERGY: 400 152.2558 639.6869 2899.9127 0.0000 -191859.8219 18473.9845 385.3781 0.0000 0.0000 -169308.6041 0.0000 -169308.6041 -169308.6041 0.0000 14359.6728 -5828.2170 534946.2959 14359.6728 -5828.2170
TCL: Setting parameter constraintScaling to 0.625
TCL: Minimizing for 100 steps
ETITLE: TS BOND ANGLE DIHED IMPRP ELECT VDW BOUNDARY MISC KINETIC TOTAL TEMP POTENTIAL TOTAL3 TEMPAVG PRESSURE GPRESSURE VOLUME PRESSAVG GPRESSAVG
ENERGY: 400 152.2558 639.6869 2899.9127 0.0000 -191859.8219 18473.9845 192.6890 0.0000 0.0000 -169501.2931 0.0000 -169501.2931 -169501.2931 0.0000 14653.7817 -26719.8320 534946.2959 14653.7817 -26719.8320
ENERGY: 420 314.2229 671.6320 2888.9480 0.0000 -192594.3572 18639.3982 250.7368 0.0000 0.0000 -169829.4194 0.0000 -169829.4194 -169829.4194 0.0000 14543.2021 -5724.4032 534946.2959 14543.2021 -5724.4032
ENERGY: 440 212.2840 658.4953 2883.2463 0.0000 -193410.8902 18920.9963 283.3860 0.0000 0.0000 -170452.4824 0.0000 -170452.4824 -170452.4824 0.0000 14634.5839 -5715.7090 534946.2959 14634.5839 -5715.7090
ENERGY: 460 148.4236 635.6990 2884.3850 0.0000 -193858.1031 19113.5338 275.9391 0.0000 0.0000 -170800.1226 0.0000 -170800.1226 -170800.1226 0.0000 14840.8054 -5585.4614 534946.2959 14840.8054 -5585.4614
ENERGY: 480 228.7384 694.2366 2880.6989 0.0000 -195158.2925 19641.7810 305.6494 0.0000 0.0000 -171407.1882 0.0000 -171407.1882 -171407.1882 0.0000 15006.5290 -5553.8455 534946.2959 15006.5290 -5553.8455
ENERGY: 500 159.0382 643.6523 2874.8640 0.0000 -196322.7087 20151.4895 339.6550 0.0000 0.0000 -172154.0096 0.0000 -172154.0096 -172154.0096 0.0000 15313.0485 -5388.8691 534946.2959 15313.0485 -5388.8691
TCL: Setting parameter constraintScaling to 0.3125
TCL: Minimizing for 100 steps
ETITLE: TS BOND ANGLE DIHED IMPRP ELECT VDW BOUNDARY MISC KINETIC TOTAL TEMP POTENTIAL TOTAL3 TEMPAVG PRESSURE GPRESSURE VOLUME PRESSAVG GPRESSAVG
ENERGY: 500 159.0382 643.6523 2874.8640 0.0000 -196322.7087 20151.4895 169.8275 0.0000 0.0000 -172323.8371 0.0000 -172323.8371 -172323.8371 0.0000 15517.0582 -26900.8560 534946.2959 15517.0582 -26900.8560
ENERGY: 520 157.8808 637.1964 2872.1906 0.0000 -196586.3261 20202.9825 177.8878 0.0000 0.0000 -172538.1879 0.0000 -172538.1879 -172538.1879 0.0000 15533.7087 -5203.4147 534946.2959 15533.7087 -5203.4147
ENERGY: 540 192.2217 651.4722 2870.0377 0.0000 -197236.1065 20404.9568 202.9647 0.0000 0.0000 -172914.4534 0.0000 -172914.4534 -172914.4534 0.0000 15478.7641 -5304.2639 534946.2959 15478.7641 -5304.2639
ENERGY: 560 342.6732 665.7133 2865.9759 0.0000 -197634.5432 20551.3632 209.4459 0.0000 0.0000 -172999.3718 0.0000 -172999.3718 -172999.3718 0.0000 15518.7539 -5318.1338 534946.2959 15518.7539 -5318.1338
ENERGY: 580 180.7322 654.3097 2862.4838 0.0000 -199024.0301 21145.1353 229.6808 0.0000 0.0000 -173951.6882 0.0000 -173951.6882 -173951.6882 0.0000 15860.0507 -5132.0730 534946.2959 15860.0507 -5132.0730
ENERGY: 600 174.6171 651.9620 2856.6942 0.0000 -200430.9031 21785.5189 263.8169 0.0000 0.0000 -174698.2939 0.0000 -174698.2939 -174698.2939 0.0000 16242.6359 -4944.4541 534946.2959 16242.6359 -4944.4541
TCL: Setting parameter constraintScaling to 0.15625
TCL: Minimizing for 100 steps
ETITLE: TS BOND ANGLE DIHED IMPRP ELECT VDW BOUNDARY MISC KINETIC TOTAL TEMP POTENTIAL TOTAL3 TEMPAVG PRESSURE GPRESSURE VOLUME PRESSAVG GPRESSAVG
ENERGY: 600 174.6171 651.9620 2856.6942 0.0000 -200430.9031 21785.5189 131.9085 0.0000 0.0000 -174830.2024 0.0000 -174830.2024 -174830.2024 0.0000 16375.9613 -27029.2026 534946.2959 16375.9613 -27029.2026
ENERGY: 620 157.9319 635.0351 2844.5821 0.0000 -200586.8637 21772.4026 136.8763 0.0000 0.0000 -175040.0357 0.0000 -175040.0357 -175040.0357 0.0000 16342.7485 -4859.6395 534946.2959 16342.7485 -4859.6395
ENERGY: 640 183.3550 646.3188 2843.2542 0.0000 -201012.1317 21868.3411 149.8504 0.0000 0.0000 -175321.0122 0.0000 -175321.0122 -175321.0122 0.0000 16283.4621 -4948.9619 534946.2959 16283.4621 -4948.9619
ENERGY: 660 165.7666 648.0471 2842.9652 0.0000 -201341.9410 21983.2179 149.6030 0.0000 0.0000 -175552.3412 0.0000 -175552.3412 -175552.3412 0.0000 16361.8519 -4912.7307 534946.2959 16361.8519 -4912.7307
ENERGY: 680 355.7600 744.8413 2864.0387 0.0000 -202273.9133 22426.5800 162.1497 0.0000 0.0000 -175720.5436 0.0000 -175720.5436 -175720.5436 0.0000 16687.4074 -4737.2984 534946.2959 16687.4074 -4737.2984
ENERGY: 700 162.0515 638.8619 2844.2258 0.0000 -202303.4799 22388.9241 162.3851 0.0000 0.0000 -176107.0314 0.0000 -176107.0314 -176107.0314 0.0000 16599.6546 -4790.8934 534946.2959 16599.6546 -4790.8934
TCL: Setting parameter constraintScaling to 0.078125
TCL: Minimizing for 100 steps
ETITLE: TS BOND ANGLE DIHED IMPRP ELECT VDW BOUNDARY MISC KINETIC TOTAL TEMP POTENTIAL TOTAL3 TEMPAVG PRESSURE GPRESSURE VOLUME PRESSAVG GPRESSAVG
ENERGY: 700 162.0515 638.8619 2844.2258 0.0000 -202303.4799 22388.9241 81.1926 0.0000 0.0000 -176188.2240 0.0000 -176188.2240 -176188.2240 0.0000 16675.0062 -27182.2153 534946.2959 16675.0062 -27182.2153
ENERGY: 720 158.4847 652.1308 2834.4645 0.0000 -202450.1441 22401.8517 84.5458 0.0000 0.0000 -176318.6666 0.0000 -176318.6666 -176318.6666 0.0000 16691.6416 -4730.2056 534946.2959 16691.6416 -4730.2056
ENERGY: 740 235.7163 677.0458 2832.3826 0.0000 -202757.8949 22506.4904 90.3248 0.0000 0.0000 -176415.9350 0.0000 -176415.9350 -176415.9350 0.0000 16702.8938 -4748.9312 534946.2959 16702.8938 -4748.9312
ENERGY: 760 161.6693 651.4050 2827.7551 0.0000 -203020.9106 22603.0716 93.7881 0.0000 0.0000 -176683.2215 0.0000 -176683.2215 -176683.2215 0.0000 16718.8917 -4757.2379 534946.2959 16718.8917 -4757.2379
ENERGY: 780 191.0862 643.6914 2827.7803 0.0000 -203305.8358 22730.5293 93.9166 0.0000 0.0000 -176818.8320 0.0000 -176818.8320 -176818.8320 0.0000 16787.0309 -4717.4390 534946.2959 16787.0309 -4717.4390
ENERGY: 800 189.0711 664.4892 2834.2355 0.0000 -203996.6050 23057.4704 98.4835 0.0000 0.0000 -177152.8553 0.0000 -177152.8553 -177152.8553 0.0000 16997.6488 -4599.2782 534946.2959 16997.6488 -4599.2782
TCL: Setting parameter constraintScaling to 0.0390625
TCL: Minimizing for 100 steps
ETITLE: TS BOND ANGLE DIHED IMPRP ELECT VDW BOUNDARY MISC KINETIC TOTAL TEMP POTENTIAL TOTAL3 TEMPAVG PRESSURE GPRESSURE VOLUME PRESSAVG GPRESSAVG
ENERGY: 800 189.0711 664.4892 2834.2355 0.0000 -203996.6050 23057.4704 49.2418 0.0000 0.0000 -177202.0971 0.0000 -177202.0971 -177202.0971 0.0000 17040.0689 -27220.7765 534946.2959 17040.0689 -27220.7765
ENERGY: 820 180.9655 652.4156 2821.3218 0.0000 -204228.6062 23108.7695 52.4162 0.0000 0.0000 -177412.7177 0.0000 -177412.7177 -177412.7177 0.0000 17019.3269 -4601.4578 534946.2959 17019.3269 -4601.4578
ENERGY: 840 183.6972 674.9578 2820.6313 0.0000 -204599.4167 23270.5583 55.9133 0.0000 0.0000 -177593.6588 0.0000 -177593.6588 -177593.6588 0.0000 17083.5421 -4582.2517 534946.2959 17083.5421 -4582.2517
ENERGY: 860 223.8412 670.9089 2818.2761 0.0000 -205011.2296 23444.3020 58.6526 0.0000 0.0000 -177795.2488 0.0000 -177795.2488 -177795.2488 0.0000 17162.1712 -4550.7717 534946.2959 17162.1712 -4550.7717
ENERGY: 880 253.8511 676.9071 2820.9950 0.0000 -205256.6147 23569.5079 58.1205 0.0000 0.0000 -177877.2331 0.0000 -177877.2331 -177877.2331 0.0000 17274.1813 -4468.9766 534946.2959 17274.1813 -4468.9766
ENERGY: 900 168.2636 647.3308 2816.6029 0.0000 -205498.5695 23694.5813 58.7460 0.0000 0.0000 -178113.0449 0.0000 -178113.0449 -178113.0449 0.0000 17355.0243 -4412.6576 534946.2959 17355.0243 -4412.6576
TCL: Setting parameter constraintScaling to 0.01953125
TCL: Minimizing for 100 steps
ETITLE: TS BOND ANGLE DIHED IMPRP ELECT VDW BOUNDARY MISC KINETIC TOTAL TEMP POTENTIAL TOTAL3 TEMPAVG PRESSURE GPRESSURE VOLUME PRESSAVG GPRESSAVG
ENERGY: 900 168.2636 647.3308 2816.6029 0.0000 -205498.5695 23694.5813 29.3730 0.0000 0.0000 -178142.4179 0.0000 -178142.4179 -178142.4179 0.0000 17378.8118 -27239.8989 534946.2959 17378.8118 -27239.8989
ENERGY: 920 233.6705 654.2091 2811.0705 0.0000 -205646.8235 23719.4064 30.6014 0.0000 0.0000 -178197.8657 0.0000 -178197.8657 -178197.8657 0.0000 17351.1799 -4436.0789 534946.2959 17351.1799 -4436.0789
ENERGY: 940 176.2911 675.9305 2813.3057 0.0000 -205892.6026 23820.9053 31.8236 0.0000 0.0000 -178374.3465 0.0000 -178374.3465 -178374.3465 0.0000 17425.7443 -4398.7401 534946.2959 17425.7443 -4398.7401
ENERGY: 960 163.3717 647.1202 2809.3681 0.0000 -205997.3401 23869.0467 31.9117 0.0000 0.0000 -178476.5218 0.0000 -178476.5218 -178476.5218 0.0000 17435.7085 -4393.8702 534946.2959 17435.7085 -4393.8702
ENERGY: 980 164.9626 646.3957 2810.0126 0.0000 -206378.6867 24061.9911 32.8540 0.0000 0.0000 -178662.4707 0.0000 -178662.4707 -178662.4707 0.0000 17544.3440 -4325.9341 534946.2959 17544.3440 -4325.9341
ENERGY: 1000 185.3982 654.8208 2807.1029 0.0000 -206816.8844 24248.9649 34.7913 0.0000 0.0000 -178885.8063 0.0000 -178885.8063 -178885.8063 0.0000 17619.3306 -4292.1739 534946.2959 17619.3306 -4292.1739
TCL: Setting parameter constraintScaling to 0
TCL: Minimizing for 5000 steps
ETITLE: TS BOND ANGLE DIHED IMPRP ELECT VDW BOUNDARY MISC KINETIC TOTAL TEMP POTENTIAL TOTAL3 TEMPAVG PRESSURE GPRESSURE VOLUME PRESSAVG GPRESSAVG
ENERGY: 1000 185.3982 654.8208 2807.1029 0.0000 -206816.8844 24248.9649 0.0000 0.0000 0.0000 -178920.5976 0.0000 -178920.5976 -178920.5976 0.0000 17645.7748 -27280.0276 534946.2959 17645.7748 -27280.0276
ENERGY: 2000 168.7246 660.6921 2801.8923 0.0000 -215177.8097 27946.0373 0.0000 0.0000 0.0000 -183600.4635 0.0000 -183600.4635 -183600.4635 0.0000 19613.6081 -3241.2650 534946.2959 19613.6081 -3241.2650
ENERGY: 3000 166.4064 661.5050 2794.9489 0.0000 -217711.7220 28924.9333 0.0000 0.0000 0.0000 -185163.9283 0.0000 -185163.9283 -185163.9283 0.0000 20135.3367 -2973.7964 534946.2959 20135.3367 -2973.7964
ENERGY: 4000 164.9731 660.4493 2788.9040 0.0000 -218971.0634 29502.5645 0.0000 0.0000 0.0000 -185854.1725 0.0000 -185854.1725 -185854.1725 0.0000 20438.4352 -2816.3878 534946.2959 20438.4352 -2816.3878
ENERGY: 5000 165.5095 663.0599 2789.2513 0.0000 -219679.7616 29763.5178 0.0000 0.0000 0.0000 -186298.4231 0.0000 -186298.4231 -186298.4231 0.0000 20570.0504 -2753.5782 534946.2959 20570.0504 -2753.5782
ENERGY: 6000 166.0692 664.4095 2785.2766 0.0000 -220045.5646 29893.6974 0.0000 0.0000 0.0000 -186536.1119 0.0000 -186536.1119 -186536.1119 0.0000 20627.8615 -2734.9348 534946.2959 20627.8615 -2734.9348
