Info: SIMULATION PARAMETERS:
Info: TIMESTEP               2
Info: NUMBER OF STEPS        0
Info: STEPS PER CYCLE        10
Info: PERIODIC CELL BASIS 1  72.449 0 0
Info: PERIODIC CELL BASIS 2  0 93.247 0
Info: PERIODIC CELL BASIS 3  0 0 79.185
Info: PERIODIC CELL CENTER   -0.248 -0.156 -0.047
Info: WRAPPING WATERS AROUND PERIODIC BOUNDARIES ON OUTPUT.
Info: WRAPPING ALL CLUSTERS AROUND PERIODIC BOUNDARIES ON OUTPUT.
Info: FIRST LDB TIMESTEP     50
Info: LAST LDB TIMESTEP     -1
Info: HOM BACKGROUND SCALING 1
Info: PME BACKGROUND SCALING 1
Info: MIN ATOMS PER PATCH    40
Info: INITIAL TEMPERATURE    0
Info: CENTER OF MASS MOVING INITIALLY? NO
Info: DIELECTRIC             1
Info: EXCLUDE                SCALED ONE-FOUR
Info: 1-4 ELECTROSTATICS SCALED BY 0.833333
Info: MODIFIED 1-4 VDW PARAMETERS WILL BE USED
Info: NO DCD TRAJECTORY OUTPUT
Info: NO EXTENDED SYSTEM TRAJECTORY OUTPUT
Info: NO VELOCITY DCD OUTPUT
Info: NO FORCE DCD OUTPUT
Info: OUTPUT FILENAME        ../replicas/rep115/equilibration/eq0
Info: NO RESTART FILE
Info: SWITCHING ACTIVE
Info: SWITCHING ON           10
Info: SWITCHING OFF          12
Info: PAIRLIST DISTANCE      13.5
Info: PAIRLIST SHRINK RATE   0.01
Info: PAIRLIST GROW RATE     0.01
Info: PAIRLIST TRIGGER       0.3
Info: PAIRLISTS PER CYCLE    2
Info: PAIRLISTS ENABLED
Info: MARGIN                 0
Info: HYDROGEN GROUP CUTOFF  2.5
Info: PATCH DIMENSION        16
Info: ENERGY OUTPUT STEPS    500
Info: CROSSTERM ENERGY INCLUDED IN DIHEDRAL
Info: TIMING OUTPUT STEPS    5000
Info: PRESSURE OUTPUT STEPS  500
Info: HARMONIC CONSTRAINTS ACTIVE
Info: HARMONIC CONS EXP      2
Info: HARMONIC CONS SCALING  10
Info: CONJUGATE GRADIENT MINIMIZATION ACTIVE
Info: LINE MINIMIZATION GOAL = 0.001
Info: BABY STEP SIZE = 0.01
Info: TINY STEP SIZE = 1e-06
Info: PARTICLE MESH EWALD (PME) ACTIVE
Info: PME TOLERANCE               1e-06
Info: PME EWALD COEFFICIENT       0.257952
Info: PME INTERPOLATION ORDER     4
Info: PME GRID DIMENSIONS         80 96 80
Info: PME MAXIMUM GRID SPACING    1
Info: FULL ELECTROSTATIC EVALUATION FREQUENCY      2
Info: USING VERLET I (r-RESPA) MTS SCHEME.
Info: C1 SPLITTING OF LONG RANGE ELECTROSTATICS
Info: PLACING ATOMS IN PATCHES BY HYDROGEN GROUPS
Info: RIGID BONDS TO HYDROGEN : ALL
Info:         ERROR TOLERANCE : 1e-05
Info:          MAX ITERATIONS : 100
Info: RIGID WATER USING SETTLE ALGORITHM
Info: RANDOM NUMBER SEED     1503694051
Info: USE HYDROGEN BONDS?    NO
Info: Using AMBER format force field!
Info: AMBER PARM FILE        ../build/complex.top
Info: COORDINATE PDB         ../build/complex.pdb
Info: Exclusions in PARM file will be ignored!
Info: SCNB (VDW SCALING)     2
Info: USING ARITHMETIC MEAN TO COMBINE L-J SIGMA PARAMETERS
Info: SUMMARY OF PARAMETERS:
Info: 71 BONDS
Info: 145 ANGLES
Info:   145 HARMONIC
Info:   0 COSINE-BASED
Info: 76 DIHEDRAL
Info: 0 IMPROPER
Info: 0 CROSSTERM
Info: 0 VDW
Info: 190 VDW_PAIRS
Info: 0 NBTHOLE_PAIRS
Info: STRUCTURE SUMMARY:
Info: 49394 ATOMS
Info: 49448 BONDS
Info: 8698 ANGLES
Info: 18780 DIHEDRALS
Info: 0 IMPROPERS
Info: 0 CROSSTERMS
Info: 0 EXCLUSIONS
Info: 2336 CONSTRAINTS
Info: 47058 RIGID BONDS
Info: 101124 DEGREES OF FREEDOM
Info: 17225 HYDROGEN GROUPS
Info: 4 ATOMS IN LARGEST HYDROGEN GROUP
Info: 17225 MIGRATION GROUPS
Info: 4 ATOMS IN LARGEST MIGRATION GROUP
Info: TOTAL MASS = 301478 amu
Info: TOTAL CHARGE = 1.00115e-05 e
Info: MASS DENSITY = 0.935846 g/cm^3
Info: ATOM DENSITY = 0.0923345 atoms/A^3
Info: ADDED 70656 IMPLICIT EXCLUSIONS
Info: NONBONDED TABLE R-SQUARED SPACING: 0.0625
Info: NONBONDED TABLE SIZE: 769 POINTS
Info: REMOVING COM VELOCITY 0 0 0
TCL: Minimizing for 100 steps
ETITLE: TS BOND ANGLE DIHED IMPRP ELECT VDW BOUNDARY MISC KINETIC TOTAL TEMP POTENTIAL TOTAL3 TEMPAVG PRESSURE GPRESSURE VOLUME PRESSAVG GPRESSAVG
ENERGY: 0 155.4176 1012.2698 2855.7272 0.0000 -154496.7912 207729.2052 0.0468 0.0000 0.0000 57255.8754 0.0000 57255.8754 57255.8754 0.0000 116350.2532 86546.1670 534946.2959 116350.2532 86546.1670
ENERGY: 20 304.7556 935.7912 2893.4663 0.0000 -158672.9410 17936.6592 143.9454 0.0000 0.0000 -136458.3232 0.0000 -136458.3232 -136458.3232 0.0000 16523.9385 -239.4561 534946.2959 16523.9385 -239.4561
ENERGY: 40 198.7446 799.5728 2896.9273 0.0000 -162811.4525 16417.9538 221.3030 0.0000 0.0000 -142276.9511 0.0000 -142276.9511 -142276.9511 0.0000 15011.2704 -2135.4696 534946.2959 15011.2704 -2135.4696
ENERGY: 60 130.5283 715.3440 2898.2166 0.0000 -167496.1561 15446.7541 315.2796 0.0000 0.0000 -147990.0336 0.0000 -147990.0336 -147990.0336 0.0000 13793.8839 -3799.3984 534946.2959 13793.8839 -3799.3984
ENERGY: 80 431.2721 765.6306 2904.3786 0.0000 -169937.5259 15121.1528 372.0122 0.0000 0.0000 -150343.0796 0.0000 -150343.0796 -150343.0796 0.0000 13270.3315 -4577.2435 534946.2959 13270.3315 -4577.2435
ENERGY: 100 119.3866 710.0602 2905.2591 0.0000 -171259.7155 14991.7866 387.3614 0.0000 0.0000 -152145.8616 0.0000 -152145.8616 -152145.8616 0.0000 13056.2648 -4908.1733 534946.2959 13056.2648 -4908.1733
TCL: Setting parameter constraintScaling to 5.0
TCL: Minimizing for 100 steps
ETITLE: TS BOND ANGLE DIHED IMPRP ELECT VDW BOUNDARY MISC KINETIC TOTAL TEMP POTENTIAL TOTAL3 TEMPAVG PRESSURE GPRESSURE VOLUME PRESSAVG GPRESSAVG
ENERGY: 100 119.3866 710.0602 2905.2591 0.0000 -171259.7155 14991.7866 193.6807 0.0000 0.0000 -152339.5423 0.0000 -152339.5423 -152339.5423 0.0000 13672.7710 -23021.8196 534946.2959 13672.7710 -23021.8196
ENERGY: 120 108.8848 687.5849 2912.9267 0.0000 -172865.8811 14798.2708 281.1917 0.0000 0.0000 -154077.0222 0.0000 -154077.0222 -154077.0222 0.0000 13218.2548 -4906.0163 534946.2959 13218.2548 -4906.0163
ENERGY: 140 309.4519 708.8718 2913.8025 0.0000 -174236.6162 14731.4843 326.6377 0.0000 0.0000 -155246.3679 0.0000 -155246.3679 -155246.3679 0.0000 12971.5323 -5303.2309 534946.2959 12971.5323 -5303.2309
ENERGY: 160 265.1188 683.0807 2923.1672 0.0000 -176274.6036 14757.2927 382.8619 0.0000 0.0000 -157263.0822 0.0000 -157263.0822 -157263.0822 0.0000 12741.0514 -5735.6757 534946.2959 12741.0514 -5735.6757
ENERGY: 180 268.9692 744.0930 2928.5661 0.0000 -178994.7870 15023.4107 473.2699 0.0000 0.0000 -159556.4781 0.0000 -159556.4781 -159556.4781 0.0000 12521.6378 -6216.6068 534946.2959 12521.6378 -6216.6068
ENERGY: 200 238.8265 694.1014 2941.3579 0.0000 -181555.8736 15586.9594 546.2587 0.0000 0.0000 -161548.3697 0.0000 -161548.3697 -161548.3697 0.0000 12582.6394 -6422.4868 534946.2959 12582.6394 -6422.4868
TCL: Setting parameter constraintScaling to 2.5
TCL: Minimizing for 100 steps
ETITLE: TS BOND ANGLE DIHED IMPRP ELECT VDW BOUNDARY MISC KINETIC TOTAL TEMP POTENTIAL TOTAL3 TEMPAVG PRESSURE GPRESSURE VOLUME PRESSAVG GPRESSAVG
ENERGY: 200 238.8265 694.1014 2941.3579 0.0000 -181555.8736 15586.9594 273.1293 0.0000 0.0000 -161821.4990 0.0000 -161821.4990 -161821.4990 0.0000 13229.5372 -25653.2602 534946.2959 13229.5372 -25653.2602
ENERGY: 220 246.7583 677.8993 2933.0093 0.0000 -182077.0245 15471.6498 337.7782 0.0000 0.0000 -162409.9296 0.0000 -162409.9296 -162409.9296 0.0000 12971.0883 -6088.6974 534946.2959 12971.0883 -6088.6974
ENERGY: 240 140.4396 666.5356 2928.6089 0.0000 -182465.0639 15494.3513 343.7132 0.0000 0.0000 -162891.4153 0.0000 -162891.4153 -162891.4153 0.0000 13034.2051 -6106.2075 534946.2959 13034.2051 -6106.2075
ENERGY: 260 232.2127 701.8398 2922.5257 0.0000 -183744.3246 15756.5215 378.9229 0.0000 0.0000 -163752.3020 0.0000 -163752.3020 -163752.3020 0.0000 13014.1234 -6235.6502 534946.2959 13014.1234 -6235.6502
ENERGY: 280 203.4106 703.5813 2917.7744 0.0000 -185461.9162 16243.3854 456.9959 0.0000 0.0000 -164936.7686 0.0000 -164936.7686 -164936.7686 0.0000 13144.2899 -6340.6204 534946.2959 13144.2899 -6340.6204
ENERGY: 300 196.1258 659.1570 2920.7997 0.0000 -186573.8782 16639.4573 515.0637 0.0000 0.0000 -165643.2747 0.0000 -165643.2747 -165643.2747 0.0000 13238.7634 -6354.0483 534946.2959 13238.7634 -6354.0483
TCL: Setting parameter constraintScaling to 1.25
TCL: Minimizing for 100 steps
ETITLE: TS BOND ANGLE DIHED IMPRP ELECT VDW BOUNDARY MISC KINETIC TOTAL TEMP POTENTIAL TOTAL3 TEMPAVG PRESSURE GPRESSURE VOLUME PRESSAVG GPRESSAVG
ENERGY: 300 196.1258 659.1570 2920.7997 0.0000 -186573.8782 16639.4573 257.5319 0.0000 0.0000 -165900.8066 0.0000 -165900.8066 -165900.8066 0.0000 13701.5379 -26420.0762 534946.2959 13701.5379 -26420.0762
ENERGY: 320 155.1156 660.3364 2909.1756 0.0000 -187275.1953 16812.3460 287.6948 0.0000 0.0000 -166450.5267 0.0000 -166450.5267 -166450.5267 0.0000 13709.4133 -5958.4567 534946.2959 13709.4133 -5958.4567
ENERGY: 340 332.2756 697.5408 2918.2989 0.0000 -188230.3544 17121.5275 328.3908 0.0000 0.0000 -166832.3209 0.0000 -166832.3209 -166832.3209 0.0000 13740.6369 -6043.6509 534946.2959 13740.6369 -6043.6509
ENERGY: 360 142.5174 657.2810 2914.5265 0.0000 -188887.2509 17362.9573 348.8522 0.0000 0.0000 -167461.1165 0.0000 -167461.1165 -167461.1165 0.0000 13845.2419 -5988.5037 534946.2959 13845.2419 -5988.5037
ENERGY: 380 153.8662 643.4607 2898.1772 0.0000 -189232.9451 17459.7674 347.9389 0.0000 0.0000 -167729.7346 0.0000 -167729.7346 -167729.7346 0.0000 13918.9617 -5968.6199 534946.2959 13918.9617 -5968.6199
ENERGY: 400 215.2631 691.8225 2906.6184 0.0000 -190150.6459 17745.6307 370.4861 0.0000 0.0000 -168220.8251 0.0000 -168220.8251 -168220.8251 0.0000 13991.3302 -6004.2791 534946.2959 13991.3302 -6004.2791
TCL: Setting parameter constraintScaling to 0.625
TCL: Minimizing for 100 steps
ETITLE: TS BOND ANGLE DIHED IMPRP ELECT VDW BOUNDARY MISC KINETIC TOTAL TEMP POTENTIAL TOTAL3 TEMPAVG PRESSURE GPRESSURE VOLUME PRESSAVG GPRESSAVG
ENERGY: 400 215.2631 691.8225 2906.6184 0.0000 -190150.6459 17745.6307 185.2430 0.0000 0.0000 -168406.0682 0.0000 -168406.0682 -168406.0682 0.0000 14279.5539 -26681.6956 534946.2959 14279.5539 -26681.6956
ENERGY: 420 136.4308 635.1927 2896.9529 0.0000 -190314.2200 17797.1811 191.3110 0.0000 0.0000 -168657.1517 0.0000 -168657.1517 -168657.1517 0.0000 14325.1254 -5693.1087 534946.2959 14325.1254 -5693.1087
ENERGY: 440 171.1098 671.0047 2900.3039 0.0000 -191154.3671 18098.9583 228.6959 0.0000 0.0000 -169084.2946 0.0000 -169084.2946 -169084.2946 0.0000 14370.3598 -5732.0938 534946.2959 14370.3598 -5732.0938
ENERGY: 460 151.2849 648.0466 2889.4081 0.0000 -192076.6412 18429.9030 263.0788 0.0000 0.0000 -169694.9198 0.0000 -169694.9198 -169694.9198 0.0000 14473.2335 -5736.1687 534946.2959 14473.2335 -5736.1687
ENERGY: 480 168.4283 690.2431 2895.1780 0.0000 -192384.4027 18511.2266 266.2341 0.0000 0.0000 -169853.0925 0.0000 -169853.0925 -169853.0925 0.0000 14504.4711 -5725.0307 534946.2959 14504.4711 -5725.0307
ENERGY: 500 173.6015 707.4904 2895.9153 0.0000 -193123.7837 18804.1217 271.2769 0.0000 0.0000 -170271.3779 0.0000 -170271.3779 -170271.3779 0.0000 14695.9112 -5648.8281 534946.2959 14695.9112 -5648.8281
TCL: Setting parameter constraintScaling to 0.3125
TCL: Minimizing for 100 steps
ETITLE: TS BOND ANGLE DIHED IMPRP ELECT VDW BOUNDARY MISC KINETIC TOTAL TEMP POTENTIAL TOTAL3 TEMPAVG PRESSURE GPRESSURE VOLUME PRESSAVG GPRESSAVG
ENERGY: 500 173.6015 707.4904 2895.9153 0.0000 -193123.7837 18804.1217 135.6384 0.0000 0.0000 -170407.0163 0.0000 -170407.0163 -170407.0163 0.0000 14880.7904 -26784.6423 534946.2959 14880.7904 -26784.6423
ENERGY: 520 151.8056 642.6666 2884.2988 0.0000 -193449.8686 18917.1305 144.2968 0.0000 0.0000 -170709.6702 0.0000 -170709.6702 -170709.6702 0.0000 14870.2630 -5483.6265 534946.2959 14870.2630 -5483.6265
ENERGY: 540 155.2016 664.4677 2880.6107 0.0000 -193969.5346 19132.4977 163.4619 0.0000 0.0000 -170973.2949 0.0000 -170973.2949 -170973.2949 0.0000 14940.8507 -5479.1018 534946.2959 14940.8507 -5479.1018
ENERGY: 560 158.0270 663.1549 2878.5407 0.0000 -194234.2810 19188.8187 167.2427 0.0000 0.0000 -171178.4969 0.0000 -171178.4969 -171178.4969 0.0000 14963.5187 -5480.3040 534946.2959 14963.5187 -5480.3040
ENERGY: 580 185.7240 735.0816 2880.4194 0.0000 -194819.2841 19407.0698 179.0458 0.0000 0.0000 -171431.9435 0.0000 -171431.9435 -171431.9435 0.0000 15071.2010 -5457.3677 534946.2959 15071.2010 -5457.3677
ENERGY: 600 162.0068 664.8204 2876.6508 0.0000 -196190.1951 19986.0093 208.6615 0.0000 0.0000 -172292.0462 0.0000 -172292.0462 -172292.0462 0.0000 15333.1900 -5339.8210 534946.2959 15333.1900 -5339.8210
TCL: Setting parameter constraintScaling to 0.15625
TCL: Minimizing for 100 steps
ETITLE: TS BOND ANGLE DIHED IMPRP ELECT VDW BOUNDARY MISC KINETIC TOTAL TEMP POTENTIAL TOTAL3 TEMPAVG PRESSURE GPRESSURE VOLUME PRESSAVG GPRESSAVG
ENERGY: 600 162.0068 664.8204 2876.6508 0.0000 -196190.1951 19986.0093 104.3308 0.0000 0.0000 -172396.3770 0.0000 -172396.3770 -172396.3770 0.0000 15452.0125 -26928.5642 534946.2959 15452.0125 -26928.5642
ENERGY: 620 161.5848 652.7985 2865.7354 0.0000 -196510.6619 20089.5153 111.0480 0.0000 0.0000 -172629.9799 0.0000 -172629.9799 -172629.9799 0.0000 15439.5334 -5261.4080 534946.2959 15439.5334 -5261.4080
ENERGY: 640 172.5152 681.1007 2868.3634 0.0000 -196935.6212 20259.0728 117.6468 0.0000 0.0000 -172836.9224 0.0000 -172836.9224 -172836.9224 0.0000 15521.4172 -5244.8337 534946.2959 15521.4172 -5244.8337
ENERGY: 660 177.7759 675.6885 2863.9974 0.0000 -197178.4985 20320.2019 120.0714 0.0000 0.0000 -173020.7634 0.0000 -173020.7634 -173020.7634 0.0000 15557.9881 -5229.6039 534946.2959 15557.9881 -5229.6039
ENERGY: 680 195.6943 674.3450 2863.1579 0.0000 -197830.9236 20569.3055 127.0998 0.0000 0.0000 -173401.3212 0.0000 -173401.3212 -173401.3212 0.0000 15653.6026 -5201.5633 534946.2959 15653.6026 -5201.5633
ENERGY: 700 173.3734 700.1414 2860.5390 0.0000 -199104.9398 21104.6012 145.8229 0.0000 0.0000 -174120.4619 0.0000 -174120.4619 -174120.4619 0.0000 15941.4368 -5077.8958 534946.2959 15941.4368 -5077.8958
TCL: Setting parameter constraintScaling to 0.078125
TCL: Minimizing for 100 steps
ETITLE: TS BOND ANGLE DIHED IMPRP ELECT VDW BOUNDARY MISC KINETIC TOTAL TEMP POTENTIAL TOTAL3 TEMPAVG PRESSURE GPRESSURE VOLUME PRESSAVG GPRESSAVG
ENERGY: 700 173.3734 700.1414 2860.5390 0.0000 -199104.9398 21104.6012 72.9114 0.0000 0.0000 -174193.3734 0.0000 -174193.3734 -174193.3734 0.0000 16014.4053 -27055.0660 534946.2959 16014.4053 -27055.0660
ENERGY: 720 161.7023 663.2512 2848.4676 0.0000 -199319.5211 21156.4247 75.2492 0.0000 0.0000 -174414.4261 0.0000 -174414.4261 -174414.4261 0.0000 16019.2110 -5013.9443 534946.2959 16019.2110 -5013.9443
ENERGY: 740 172.7501 688.4559 2848.5255 0.0000 -199550.7603 21256.3455 78.2314 0.0000 0.0000 -174506.4518 0.0000 -174506.4518 -174506.4518 0.0000 16048.2297 -5014.2258 534946.2959 16048.2297 -5014.2258
ENERGY: 760 169.3097 671.7375 2843.9383 0.0000 -200141.7938 21514.8397 84.8001 0.0000 0.0000 -174857.1685 0.0000 -174857.1685 -174857.1685 0.0000 16154.6084 -4969.4264 534946.2959 16154.6084 -4969.4264
ENERGY: 780 168.8411 656.8730 2838.3898 0.0000 -200256.5556 21484.7967 84.1536 0.0000 0.0000 -175023.5014 0.0000 -175023.5014 -175023.5014 0.0000 16149.7112 -4988.3926 534946.2959 16149.7112 -4988.3926
ENERGY: 800 162.7104 658.5122 2841.2740 0.0000 -200705.5593 21663.5944 86.2852 0.0000 0.0000 -175293.1830 0.0000 -175293.1830 -175293.1830 0.0000 16271.5126 -4924.5010 534946.2959 16271.5126 -4924.5010
TCL: Setting parameter constraintScaling to 0.0390625
TCL: Minimizing for 100 steps
ETITLE: TS BOND ANGLE DIHED IMPRP ELECT VDW BOUNDARY MISC KINETIC TOTAL TEMP POTENTIAL TOTAL3 TEMPAVG PRESSURE GPRESSURE VOLUME PRESSAVG GPRESSAVG
ENERGY: 800 162.7104 658.5122 2841.2740 0.0000 -200705.5593 21663.5944 43.1426 0.0000 0.0000 -175336.3256 0.0000 -175336.3256 -175336.3256 0.0000 16312.0553 -27143.4578 534946.2959 16312.0553 -27143.4578
ENERGY: 820 164.9627 662.5695 2838.4677 0.0000 -200906.8826 21710.7832 44.5763 0.0000 0.0000 -175485.5232 0.0000 -175485.5232 -175485.5232 0.0000 16299.1714 -4916.3821 534946.2959 16299.1714 -4916.3821
ENERGY: 840 171.1453 661.8541 2833.6031 0.0000 -201219.5667 21866.9721 46.9085 0.0000 0.0000 -175639.0835 0.0000 -175639.0835 -175639.0835 0.0000 16367.8281 -4885.0589 534946.2959 16367.8281 -4885.0589
ENERGY: 860 251.8756 735.9498 2840.8706 0.0000 -201500.1932 21940.5096 47.8447 0.0000 0.0000 -175683.1428 0.0000 -175683.1428 -175683.1428 0.0000 16416.8259 -4875.7192 534946.2959 16416.8259 -4875.7192
ENERGY: 880 384.7121 792.4647 2848.9128 0.0000 -202086.4366 22206.0187 50.0482 0.0000 0.0000 -175804.2801 0.0000 -175804.2801 -175804.2801 0.0000 16530.1924 -4855.3856 534946.2959 16530.1924 -4855.3856
ENERGY: 900 230.9158 695.5152 2830.1288 0.0000 -202638.1587 22419.7696 52.9821 0.0000 0.0000 -176408.8471 0.0000 -176408.8471 -176408.8471 0.0000 16660.5101 -4764.1091 534946.2959 16660.5101 -4764.1091
TCL: Setting parameter constraintScaling to 0.01953125
TCL: Minimizing for 100 steps
ETITLE: TS BOND ANGLE DIHED IMPRP ELECT VDW BOUNDARY MISC KINETIC TOTAL TEMP POTENTIAL TOTAL3 TEMPAVG PRESSURE GPRESSURE VOLUME PRESSAVG GPRESSAVG
ENERGY: 900 230.9158 695.5152 2830.1288 0.0000 -202638.1587 22419.7696 26.4910 0.0000 0.0000 -176435.3382 0.0000 -176435.3382 -176435.3382 0.0000 16683.4686 -27236.6850 534946.2959 16683.4686 -27236.6850
ENERGY: 920 163.4548 650.8025 2825.2583 0.0000 -202763.8266 22448.9204 26.9113 0.0000 0.0000 -176648.4793 0.0000 -176648.4793 -176648.4793 0.0000 16698.0040 -4738.3813 534946.2959 16698.0040 -4738.3813
ENERGY: 940 171.5788 663.4077 2821.1732 0.0000 -203172.2704 22654.7518 28.4480 0.0000 0.0000 -176832.9109 0.0000 -176832.9109 -176832.9109 0.0000 16775.3468 -4704.9646 534946.2959 16775.3468 -4704.9646
ENERGY: 960 168.9559 667.5807 2819.0678 0.0000 -203654.2433 22861.1675 29.9573 0.0000 0.0000 -177107.5141 0.0000 -177107.5141 -177107.5141 0.0000 16874.2719 -4661.4760 534946.2959 16874.2719 -4661.4760
ENERGY: 980 187.3058 667.6607 2819.8993 0.0000 -203806.8217 22881.7707 29.8994 0.0000 0.0000 -177220.2858 0.0000 -177220.2858 -177220.2858 0.0000 16913.7329 -4647.2981 534946.2959 16913.7329 -4647.2981
ENERGY: 1000 179.8924 661.7707 2818.2393 0.0000 -204195.9062 23059.7702 30.7474 0.0000 0.0000 -177445.4862 0.0000 -177445.4862 -177445.4862 0.0000 17015.3352 -4589.4821 534946.2959 17015.3352 -4589.4821
TCL: Setting parameter constraintScaling to 0
TCL: Minimizing for 5000 steps
ETITLE: TS BOND ANGLE DIHED IMPRP ELECT VDW BOUNDARY MISC KINETIC TOTAL TEMP POTENTIAL TOTAL3 TEMPAVG PRESSURE GPRESSURE VOLUME PRESSAVG GPRESSAVG
ENERGY: 1000 179.8924 661.7707 2818.2393 0.0000 -204195.9062 23059.7702 0.0000 0.0000 0.0000 -177476.2336 0.0000 -177476.2336 -177476.2336 0.0000 17040.6475 -27250.9611 534946.2959 17040.6475 -27250.9611
ENERGY: 2000 168.0403 662.9078 2799.0471 0.0000 -214814.2052 27774.0362 0.0000 0.0000 0.0000 -183410.1738 0.0000 -183410.1738 -183410.1738 0.0000 19516.3740 -3290.4268 534946.2959 19516.3740 -3290.4268
ENERGY: 3000 168.8934 672.9354 2794.2899 0.0000 -217448.1275 28888.4234 0.0000 0.0000 0.0000 -184923.5855 0.0000 -184923.5855 -184923.5855 0.0000 20114.4966 -2959.4197 534946.2959 20114.4966 -2959.4197
ENERGY: 4000 167.5526 670.6326 2786.7403 0.0000 -218653.7489 29330.1695 0.0000 0.0000 0.0000 -185698.6539 0.0000 -185698.6539 -185698.6539 0.0000 20332.7034 -2863.2667 534946.2959 20332.7034 -2863.2667
ENERGY: 5000 166.2170 668.2281 2779.7021 0.0000 -219323.4415 29601.8475 0.0000 0.0000 0.0000 -186107.4467 0.0000 -186107.4467 -186107.4467 0.0000 20469.1943 -2800.2862 534946.2959 20469.1943 -2800.2862
ENERGY: 6000 166.7396 666.8796 2775.4929 0.0000 -219791.3381 29819.7267 0.0000 0.0000 0.0000 -186362.4993 0.0000 -186362.4993 -186362.4993 0.0000 20584.2200 -2738.4333 534946.2959 20584.2200 -2738.4333
