Info: SIMULATION PARAMETERS:
Info: TIMESTEP               2
Info: NUMBER OF STEPS        0
Info: STEPS PER CYCLE        10
Info: PERIODIC CELL BASIS 1  72.449 0 0
Info: PERIODIC CELL BASIS 2  0 93.247 0
Info: PERIODIC CELL BASIS 3  0 0 79.185
Info: PERIODIC CELL CENTER   -0.248 -0.156 -0.047
Info: WRAPPING WATERS AROUND PERIODIC BOUNDARIES ON OUTPUT.
Info: WRAPPING ALL CLUSTERS AROUND PERIODIC BOUNDARIES ON OUTPUT.
Info: FIRST LDB TIMESTEP     50
Info: LAST LDB TIMESTEP     -1
Info: HOM BACKGROUND SCALING 1
Info: PME BACKGROUND SCALING 1
Info: MIN ATOMS PER PATCH    40
Info: INITIAL TEMPERATURE    0
Info: CENTER OF MASS MOVING INITIALLY? NO
Info: DIELECTRIC             1
Info: EXCLUDE                SCALED ONE-FOUR
Info: 1-4 ELECTROSTATICS SCALED BY 0.833333
Info: MODIFIED 1-4 VDW PARAMETERS WILL BE USED
Info: NO DCD TRAJECTORY OUTPUT
Info: NO EXTENDED SYSTEM TRAJECTORY OUTPUT
Info: NO VELOCITY DCD OUTPUT
Info: NO FORCE DCD OUTPUT
Info: OUTPUT FILENAME        ../replicas/rep61/equilibration/eq0
Info: NO RESTART FILE
Info: SWITCHING ACTIVE
Info: SWITCHING ON           10
Info: SWITCHING OFF          12
Info: PAIRLIST DISTANCE      13.5
Info: PAIRLIST SHRINK RATE   0.01
Info: PAIRLIST GROW RATE     0.01
Info: PAIRLIST TRIGGER       0.3
Info: PAIRLISTS PER CYCLE    2
Info: PAIRLISTS ENABLED
Info: MARGIN                 0
Info: HYDROGEN GROUP CUTOFF  2.5
Info: PATCH DIMENSION        16
Info: ENERGY OUTPUT STEPS    500
Info: CROSSTERM ENERGY INCLUDED IN DIHEDRAL
Info: TIMING OUTPUT STEPS    5000
Info: PRESSURE OUTPUT STEPS  500
Info: HARMONIC CONSTRAINTS ACTIVE
Info: HARMONIC CONS EXP      2
Info: HARMONIC CONS SCALING  10
Info: CONJUGATE GRADIENT MINIMIZATION ACTIVE
Info: LINE MINIMIZATION GOAL = 0.001
Info: BABY STEP SIZE = 0.01
Info: TINY STEP SIZE = 1e-06
Info: PARTICLE MESH EWALD (PME) ACTIVE
Info: PME TOLERANCE               1e-06
Info: PME EWALD COEFFICIENT       0.257952
Info: PME INTERPOLATION ORDER     4
Info: PME GRID DIMENSIONS         80 96 80
Info: PME MAXIMUM GRID SPACING    1
Info: FULL ELECTROSTATIC EVALUATION FREQUENCY      2
Info: USING VERLET I (r-RESPA) MTS SCHEME.
Info: C1 SPLITTING OF LONG RANGE ELECTROSTATICS
Info: PLACING ATOMS IN PATCHES BY HYDROGEN GROUPS
Info: RIGID BONDS TO HYDROGEN : ALL
Info:         ERROR TOLERANCE : 1e-05
Info:          MAX ITERATIONS : 100
Info: RIGID WATER USING SETTLE ALGORITHM
Info: RANDOM NUMBER SEED     1503690787
Info: USE HYDROGEN BONDS?    NO
Info: Using AMBER format force field!
Info: AMBER PARM FILE        ../build/complex.top
Info: COORDINATE PDB         ../build/complex.pdb
Info: Exclusions in PARM file will be ignored!
Info: SCNB (VDW SCALING)     2
Info: USING ARITHMETIC MEAN TO COMBINE L-J SIGMA PARAMETERS
Info: SUMMARY OF PARAMETERS:
Info: 71 BONDS
Info: 145 ANGLES
Info: 76 DIHEDRAL
Info: 0 IMPROPER
Info: 0 CROSSTERM
Info: 0 VDW
Info: 190 VDW_PAIRS
Info: 0 NBTHOLE_PAIRS
Info: STRUCTURE SUMMARY:
Info: 49394 ATOMS
Info: 49448 BONDS
Info: 8698 ANGLES
Info: 18780 DIHEDRALS
Info: 0 IMPROPERS
Info: 0 CROSSTERMS
Info: 0 EXCLUSIONS
Info: 2336 CONSTRAINTS
Info: 47058 RIGID BONDS
Info: 101124 DEGREES OF FREEDOM
Info: 17225 HYDROGEN GROUPS
Info: 4 ATOMS IN LARGEST HYDROGEN GROUP
Info: 17225 MIGRATION GROUPS
Info: 4 ATOMS IN LARGEST MIGRATION GROUP
Info: TOTAL MASS = 301478 amu
Info: TOTAL CHARGE = 1.00115e-05 e
Info: MASS DENSITY = 0.935846 g/cm^3
Info: ATOM DENSITY = 0.0923345 atoms/A^3
Info: ADDED 70656 IMPLICIT EXCLUSIONS
Info: NONBONDED TABLE R-SQUARED SPACING: 0.0625
Info: NONBONDED TABLE SIZE: 769 POINTS
Info: REMOVING COM VELOCITY 0 0 0
TCL: Minimizing for 100 steps
ETITLE: TS BOND ANGLE DIHED IMPRP ELECT VDW BOUNDARY MISC KINETIC TOTAL TEMP POTENTIAL TOTAL3 TEMPAVG PRESSURE GPRESSURE VOLUME PRESSAVG GPRESSAVG
ENERGY: 0 155.4176 1012.2698 2855.7272 0.0000 -154496.7912 207729.2052 0.0468 0.0000 0.0000 57255.8754 0.0000 57255.8754 57255.8754 0.0000 116350.2532 86546.1670 534946.2959 116350.2532 86546.1670
ENERGY: 20 304.7554 935.7912 2893.4663 0.0000 -158672.9408 17936.6593 143.9454 0.0000 0.0000 -136458.3232 0.0000 -136458.3232 -136458.3232 0.0000 16523.9386 -239.4560 534946.2959 16523.9386 -239.4560
ENERGY: 40 198.7464 799.5730 2896.9273 0.0000 -162811.4532 16417.9537 221.3030 0.0000 0.0000 -142276.9498 0.0000 -142276.9498 -142276.9498 0.0000 15011.2703 -2135.4699 534946.2959 15011.2703 -2135.4699
ENERGY: 60 130.5280 715.3439 2898.2166 0.0000 -167496.1595 15446.7535 315.2797 0.0000 0.0000 -147990.0377 0.0000 -147990.0377 -147990.0377 0.0000 13793.8831 -3799.3994 534946.2959 13793.8831 -3799.3994
ENERGY: 80 431.2719 765.6305 2904.3788 0.0000 -169937.5363 15121.1516 372.0124 0.0000 0.0000 -150343.0912 0.0000 -150343.0912 -150343.0912 0.0000 13270.3288 -4577.2475 534946.2959 13270.3288 -4577.2475
ENERGY: 100 129.7130 708.0647 2904.2781 0.0000 -171050.0664 15018.6537 384.2001 0.0000 0.0000 -151905.1568 0.0000 -151905.1568 -151905.1568 0.0000 13092.9129 -4843.6311 534946.2959 13092.9129 -4843.6311
TCL: Setting parameter constraintScaling to 5.0
TCL: Minimizing for 100 steps
ETITLE: TS BOND ANGLE DIHED IMPRP ELECT VDW BOUNDARY MISC KINETIC TOTAL TEMP POTENTIAL TOTAL3 TEMPAVG PRESSURE GPRESSURE VOLUME PRESSAVG GPRESSAVG
ENERGY: 100 129.7130 708.0647 2904.2781 0.0000 -171050.0664 15018.6537 192.1001 0.0000 0.0000 -152097.2568 0.0000 -152097.2568 -152097.2568 0.0000 13703.5081 -22944.4544 534946.2959 13703.5081 -22944.4544
ENERGY: 120 118.6817 680.2875 2909.9066 0.0000 -172396.3093 14830.1208 259.9548 0.0000 0.0000 -153597.3578 0.0000 -153597.3578 -153597.3578 0.0000 13320.9482 -4756.3059 534946.2959 13320.9482 -4756.3059
ENERGY: 140 109.1479 671.1470 2912.0863 0.0000 -174830.2334 14716.1441 337.7299 0.0000 0.0000 -156083.9782 0.0000 -156083.9782 -156083.9782 0.0000 12908.9632 -5423.1392 534946.2959 12908.9632 -5423.1392
ENERGY: 160 125.8508 667.1503 2914.1926 0.0000 -175967.0683 14735.1351 362.9193 0.0000 0.0000 -157161.8202 0.0000 -157161.8202 -157161.8202 0.0000 12806.8932 -5643.9892 534946.2959 12806.8932 -5643.9892
ENERGY: 180 303.4882 659.6830 2917.2966 0.0000 -177408.7582 14815.0186 395.3836 0.0000 0.0000 -158317.8881 0.0000 -158317.8881 -158317.8881 0.0000 12699.3133 -5901.0692 534946.2959 12699.3133 -5901.0692
ENERGY: 200 109.2078 628.4702 2923.3575 0.0000 -179543.6659 15071.1253 441.8769 0.0000 0.0000 -160369.6282 0.0000 -160369.6282 -160369.6282 0.0000 12659.9905 -6161.7277 534946.2959 12659.9905 -6161.7277
TCL: Setting parameter constraintScaling to 2.5
TCL: Minimizing for 100 steps
ETITLE: TS BOND ANGLE DIHED IMPRP ELECT VDW BOUNDARY MISC KINETIC TOTAL TEMP POTENTIAL TOTAL3 TEMPAVG PRESSURE GPRESSURE VOLUME PRESSAVG GPRESSAVG
ENERGY: 200 109.2078 628.4702 2923.3575 0.0000 -179543.6659 15071.1253 220.9384 0.0000 0.0000 -160590.5667 0.0000 -160590.5667 -160590.5667 0.0000 13208.4103 -25280.8536 534946.2959 13208.4103 -25280.8536
ENERGY: 220 274.9517 652.0500 2925.2486 0.0000 -180394.7294 15108.7975 287.8977 0.0000 0.0000 -161145.7841 0.0000 -161145.7841 -161145.7841 0.0000 13000.1788 -5920.8349 534946.2959 13000.1788 -5920.8349
ENERGY: 240 144.6126 629.1355 2922.0997 0.0000 -181650.2775 15308.6961 331.5758 0.0000 0.0000 -162314.1579 0.0000 -162314.1579 -162314.1579 0.0000 12968.4818 -6082.5753 534946.2959 12968.4818 -6082.5753
ENERGY: 260 238.2086 648.2241 2922.1821 0.0000 -183603.1103 15750.8953 409.8433 0.0000 0.0000 -163633.7569 0.0000 -163633.7569 -163633.7569 0.0000 12997.2094 -6271.8546 534946.2959 12997.2094 -6271.8546
ENERGY: 280 122.2777 649.7239 2918.8903 0.0000 -184720.1694 16071.2041 431.2435 0.0000 0.0000 -164526.8299 0.0000 -164526.8299 -164526.8299 0.0000 13123.0157 -6278.2113 534946.2959 13123.0157 -6278.2113
ENERGY: 300 230.2894 689.9240 2927.4704 0.0000 -186433.9457 16630.7426 425.1354 0.0000 0.0000 -165530.3839 0.0000 -165530.3839 -165530.3839 0.0000 13385.6032 -6208.4330 534946.2959 13385.6032 -6208.4330
TCL: Setting parameter constraintScaling to 1.25
TCL: Minimizing for 100 steps
ETITLE: TS BOND ANGLE DIHED IMPRP ELECT VDW BOUNDARY MISC KINETIC TOTAL TEMP POTENTIAL TOTAL3 TEMPAVG PRESSURE GPRESSURE VOLUME PRESSAVG GPRESSAVG
ENERGY: 300 230.2894 689.9240 2927.4704 0.0000 -186433.9457 16630.7426 212.5677 0.0000 0.0000 -165742.9516 0.0000 -165742.9516 -165742.9516 0.0000 13796.1070 -26294.6695 534946.2959 13796.1070 -26294.6695
ENERGY: 320 168.2400 648.6308 2911.0111 0.0000 -186874.2534 16718.7979 246.1229 0.0000 0.0000 -166181.4507 0.0000 -166181.4507 -166181.4507 0.0000 13779.4945 -5857.2349 534946.2959 13779.4945 -5857.2349
ENERGY: 340 148.3401 670.1055 2916.0709 0.0000 -188579.8090 17192.3588 363.8531 0.0000 0.0000 -167289.0806 0.0000 -167289.0806 -167289.0806 0.0000 13735.5379 -6077.2830 534946.2959 13735.5379 -6077.2830
ENERGY: 360 155.5152 658.5676 2903.3385 0.0000 -188867.4698 17309.9557 348.1919 0.0000 0.0000 -167491.9008 0.0000 -167491.9008 -167491.9008 0.0000 13842.2539 -6015.3601 534946.2959 13842.2539 -6015.3601
ENERGY: 380 288.7404 678.2585 2916.3240 0.0000 -189989.0293 17744.2036 339.0406 0.0000 0.0000 -168022.4622 0.0000 -168022.4622 -168022.4622 0.0000 14085.0189 -5904.0479 534946.2959 14085.0189 -5904.0479
ENERGY: 400 214.5829 692.4905 2910.4143 0.0000 -192220.0879 18695.2061 381.0880 0.0000 0.0000 -169326.3061 0.0000 -169326.3061 -169326.3061 0.0000 14533.3717 -5732.1789 534946.2959 14533.3717 -5732.1789
TCL: Setting parameter constraintScaling to 0.625
TCL: Minimizing for 100 steps
ETITLE: TS BOND ANGLE DIHED IMPRP ELECT VDW BOUNDARY MISC KINETIC TOTAL TEMP POTENTIAL TOTAL3 TEMPAVG PRESSURE GPRESSURE VOLUME PRESSAVG GPRESSAVG
ENERGY: 400 214.5829 692.4905 2910.4143 0.0000 -192220.0879 18695.2061 190.5440 0.0000 0.0000 -169516.8502 0.0000 -169516.8502 -169516.8502 0.0000 14831.4914 -26631.6865 534946.2959 14831.4914 -26631.6865
ENERGY: 420 140.9491 627.7149 2897.6510 0.0000 -192408.8995 18713.7630 206.0340 0.0000 0.0000 -169822.7874 0.0000 -169822.7874 -169822.7874 0.0000 14770.9478 -5478.8669 534946.2959 14770.9478 -5478.8669
ENERGY: 440 151.7448 650.4177 2889.0931 0.0000 -193134.8220 18875.2465 262.7210 0.0000 0.0000 -170305.5988 0.0000 -170305.5988 -170305.5988 0.0000 14716.9986 -5618.5658 534946.2959 14716.9986 -5618.5658
ENERGY: 460 170.3539 679.7062 2887.2879 0.0000 -193699.7670 19115.5656 261.7976 0.0000 0.0000 -170585.0558 0.0000 -170585.0558 -170585.0558 0.0000 14829.4935 -5568.7397 534946.2959 14829.4935 -5568.7397
ENERGY: 480 189.6729 672.2886 2892.8955 0.0000 -194868.0654 19592.1692 284.5056 0.0000 0.0000 -171236.5336 0.0000 -171236.5336 -171236.5336 0.0000 15099.8656 -5442.4026 534946.2959 15099.8656 -5442.4026
ENERGY: 500 172.7867 672.6894 2885.3622 0.0000 -195148.8874 19629.7248 307.9952 0.0000 0.0000 -171480.3291 0.0000 -171480.3291 -171480.3291 0.0000 15048.8189 -5521.2040 534946.2959 15048.8189 -5521.2040
TCL: Setting parameter constraintScaling to 0.3125
TCL: Minimizing for 100 steps
ETITLE: TS BOND ANGLE DIHED IMPRP ELECT VDW BOUNDARY MISC KINETIC TOTAL TEMP POTENTIAL TOTAL3 TEMPAVG PRESSURE GPRESSURE VOLUME PRESSAVG GPRESSAVG
ENERGY: 500 172.7867 672.6894 2885.3622 0.0000 -195148.8874 19629.7248 153.9976 0.0000 0.0000 -171634.3267 0.0000 -171634.3267 -171634.3267 0.0000 15242.1865 -26899.0724 534946.2959 15242.1865 -26899.0724
ENERGY: 520 159.2374 650.5747 2874.1274 0.0000 -195495.1595 19754.9676 167.4496 0.0000 0.0000 -171888.8029 0.0000 -171888.8029 -171888.8029 0.0000 15261.4601 -5335.7963 534946.2959 15261.4601 -5335.7963
ENERGY: 540 156.8430 647.9252 2869.4302 0.0000 -196034.4022 19939.6757 184.4257 0.0000 0.0000 -172236.1024 0.0000 -172236.1024 -172236.1024 0.0000 15301.8870 -5356.5995 534946.2959 15301.8870 -5356.5995
ENERGY: 560 162.8846 659.8775 2871.7802 0.0000 -196277.1332 20026.3474 186.1521 0.0000 0.0000 -172370.0915 0.0000 -172370.0915 -172370.0915 0.0000 15391.7757 -5299.8560 534946.2959 15391.7757 -5299.8560
ENERGY: 580 177.0547 694.9014 2875.4400 0.0000 -196800.7894 20231.6906 195.9329 0.0000 0.0000 -172625.7699 0.0000 -172625.7699 -172625.7699 0.0000 15482.9525 -5270.1731 534946.2959 15482.9525 -5270.1731
ENERGY: 600 183.4787 671.1129 2865.3258 0.0000 -197909.7563 20665.4401 222.5488 0.0000 0.0000 -173301.8500 0.0000 -173301.8500 -173301.8500 0.0000 15642.8960 -5249.6583 534946.2959 15642.8960 -5249.6583
TCL: Setting parameter constraintScaling to 0.15625
TCL: Minimizing for 100 steps
ETITLE: TS BOND ANGLE DIHED IMPRP ELECT VDW BOUNDARY MISC KINETIC TOTAL TEMP POTENTIAL TOTAL3 TEMPAVG PRESSURE GPRESSURE VOLUME PRESSAVG GPRESSAVG
ENERGY: 600 183.4787 671.1129 2865.3258 0.0000 -197909.7564 20665.4401 111.2744 0.0000 0.0000 -173413.1244 0.0000 -173413.1244 -173413.1244 0.0000 15764.7608 -27031.0980 534946.2959 15764.7608 -27031.0980
ENERGY: 620 155.1155 646.5907 2859.5440 0.0000 -198143.7945 20740.6993 115.5112 0.0000 0.0000 -173626.3338 0.0000 -173626.3338 -173626.3338 0.0000 15809.1137 -5101.0078 534946.2959 15809.1137 -5101.0078
ENERGY: 640 165.4992 667.6340 2857.0593 0.0000 -198957.8302 21039.4147 134.8531 0.0000 0.0000 -174093.3699 0.0000 -174093.3699 -174093.3699 0.0000 15872.2705 -5118.3849 534946.2959 15872.2705 -5118.3849
ENERGY: 660 209.7870 679.9573 2853.8330 0.0000 -199159.0306 21094.9441 132.1870 0.0000 0.0000 -174188.3223 0.0000 -174188.3223 -174188.3223 0.0000 15944.3511 -5082.9171 534946.2959 15944.3511 -5082.9171
ENERGY: 680 452.3790 759.3560 2860.2186 0.0000 -199810.0166 21346.9984 137.5476 0.0000 0.0000 -174253.5171 0.0000 -174253.5171 -174253.5171 0.0000 16054.2103 -5070.1857 534946.2959 16054.2103 -5070.1857
ENERGY: 700 157.2510 657.1940 2846.2094 0.0000 -199986.1789 21398.6686 142.5504 0.0000 0.0000 -174784.3055 0.0000 -174784.3055 -174784.3055 0.0000 16071.2532 -5054.8125 534946.2959 16071.2532 -5054.8125
TCL: Setting parameter constraintScaling to 0.078125
TCL: Minimizing for 100 steps
ETITLE: TS BOND ANGLE DIHED IMPRP ELECT VDW BOUNDARY MISC KINETIC TOTAL TEMP POTENTIAL TOTAL3 TEMPAVG PRESSURE GPRESSURE VOLUME PRESSAVG GPRESSAVG
ENERGY: 700 157.2510 657.1940 2846.2094 0.0000 -199986.1789 21398.6686 71.2752 0.0000 0.0000 -174855.5807 0.0000 -174855.5807 -174855.5807 0.0000 16142.0972 -27153.2164 534946.2959 16142.0972 -27153.2164
ENERGY: 720 160.5897 651.5056 2843.5101 0.0000 -200173.3658 21460.7148 73.9457 0.0000 0.0000 -174983.0999 0.0000 -174983.0999 -174983.0999 0.0000 16172.7285 -4970.9004 534946.2959 16172.7285 -4970.9004
ENERGY: 740 163.0068 669.4425 2840.0683 0.0000 -200746.3717 21679.0662 81.6127 0.0000 0.0000 -175313.1753 0.0000 -175313.1753 -175313.1753 0.0000 16252.9847 -4951.2600 534946.2959 16252.9847 -4951.2600
ENERGY: 760 166.6643 656.1521 2837.8304 0.0000 -200904.4454 21729.7254 81.9658 0.0000 0.0000 -175432.1074 0.0000 -175432.1074 -175432.1074 0.0000 16295.1883 -4930.0300 534946.2959 16295.1883 -4930.0300
ENERGY: 780 172.7132 673.9723 2837.3802 0.0000 -201176.7651 21847.8173 83.0704 0.0000 0.0000 -175561.8117 0.0000 -175561.8117 -175561.8117 0.0000 16367.4683 -4888.2924 534946.2959 16367.4683 -4888.2924
ENERGY: 800 220.3398 675.1537 2835.8883 0.0000 -202278.9291 22329.4170 91.7453 0.0000 0.0000 -176126.3849 0.0000 -176126.3849 -176126.3849 0.0000 16617.2720 -4787.5264 534946.2959 16617.2720 -4787.5264
TCL: Setting parameter constraintScaling to 0.0390625
TCL: Minimizing for 100 steps
ETITLE: TS BOND ANGLE DIHED IMPRP ELECT VDW BOUNDARY MISC KINETIC TOTAL TEMP POTENTIAL TOTAL3 TEMPAVG PRESSURE GPRESSURE VOLUME PRESSAVG GPRESSAVG
ENERGY: 800 220.3398 675.1537 2835.8883 0.0000 -202278.9291 22329.4170 45.8727 0.0000 0.0000 -176172.2576 0.0000 -176172.2576 -176172.2576 0.0000 16658.8968 -27192.8047 534946.2959 16658.8968 -27192.8047
ENERGY: 820 160.9122 648.5191 2830.3016 0.0000 -202393.1150 22340.2504 46.8319 0.0000 0.0000 -176366.2998 0.0000 -176366.2998 -176366.2998 0.0000 16651.7364 -4755.3550 534946.2959 16651.7364 -4755.3550
ENERGY: 840 175.0187 656.6928 2827.2002 0.0000 -202753.3814 22477.7611 50.2802 0.0000 0.0000 -176566.4284 0.0000 -176566.4284 -176566.4284 0.0000 16704.0818 -4745.6525 534946.2959 16704.0818 -4745.6525
ENERGY: 860 164.9681 665.2729 2825.1669 0.0000 -203120.8873 22638.2981 52.9632 0.0000 0.0000 -176774.2182 0.0000 -176774.2182 -176774.2182 0.0000 16748.8100 -4741.0288 534946.2959 16748.8100 -4741.0288
ENERGY: 880 171.3562 658.4068 2823.5312 0.0000 -203266.1506 22678.0667 52.2371 0.0000 0.0000 -176882.5527 0.0000 -176882.5527 -176882.5527 0.0000 16800.3943 -4703.6277 534946.2959 16800.3943 -4703.6277
ENERGY: 900 169.3707 669.2304 2830.2859 0.0000 -203631.4396 22862.0353 52.4373 0.0000 0.0000 -177048.0798 0.0000 -177048.0798 -177048.0798 0.0000 16921.1903 -4635.7834 534946.2959 16921.1903 -4635.7834
TCL: Setting parameter constraintScaling to 0.01953125
TCL: Minimizing for 100 steps
ETITLE: TS BOND ANGLE DIHED IMPRP ELECT VDW BOUNDARY MISC KINETIC TOTAL TEMP POTENTIAL TOTAL3 TEMPAVG PRESSURE GPRESSURE VOLUME PRESSAVG GPRESSAVG
ENERGY: 900 169.3707 669.2304 2830.2859 0.0000 -203631.4396 22862.0353 26.2187 0.0000 0.0000 -177074.2985 0.0000 -177074.2985 -177074.2985 0.0000 16944.0533 -27231.7373 534946.2959 16944.0533 -27231.7373
ENERGY: 920 162.7641 658.4192 2819.2576 0.0000 -203842.2527 22919.9373 27.5913 0.0000 0.0000 -177254.2831 0.0000 -177254.2831 -177254.2831 0.0000 16936.1788 -4641.4311 534946.2959 16936.1788 -4641.4311
ENERGY: 940 175.2935 670.9215 2821.0011 0.0000 -204105.8375 23041.1559 29.0228 0.0000 0.0000 -177368.4426 0.0000 -177368.4426 -177368.4426 0.0000 16965.7735 -4629.7074 534946.2959 16965.7735 -4629.7074
ENERGY: 960 203.3592 671.2449 2818.1324 0.0000 -204258.2131 23100.5802 28.9284 0.0000 0.0000 -177435.9682 0.0000 -177435.9682 -177435.9682 0.0000 17030.6046 -4582.5866 534946.2959 17030.6046 -4582.5866
ENERGY: 980 185.8052 664.5603 2821.9809 0.0000 -204634.0627 23275.1449 29.6213 0.0000 0.0000 -177656.9501 0.0000 -177656.9501 -177656.9501 0.0000 17138.4706 -4527.5944 534946.2959 17138.4706 -4527.5944
ENERGY: 1000 170.4224 653.1185 2814.8493 0.0000 -204867.3088 23361.3617 30.6079 0.0000 0.0000 -177836.9490 0.0000 -177836.9490 -177836.9490 0.0000 17163.3099 -4526.3420 534946.2959 17163.3099 -4526.3420
TCL: Setting parameter constraintScaling to 0
TCL: Minimizing for 5000 steps
ETITLE: TS BOND ANGLE DIHED IMPRP ELECT VDW BOUNDARY MISC KINETIC TOTAL TEMP POTENTIAL TOTAL3 TEMPAVG PRESSURE GPRESSURE VOLUME PRESSAVG GPRESSAVG
ENERGY: 1000 170.4224 653.1185 2814.8493 0.0000 -204867.3088 23361.3617 0.0000 0.0000 0.0000 -177867.5569 0.0000 -177867.5569 -177867.5569 0.0000 17188.2624 -27273.0131 534946.2959 17188.2624 -27273.0131
ENERGY: 2000 167.4985 661.3115 2800.2154 0.0000 -214905.6162 27787.5575 0.0000 0.0000 0.0000 -183489.0333 0.0000 -183489.0333 -183489.0333 0.0000 19525.9060 -3302.0491 534946.2959 19525.9060 -3302.0491
ENERGY: 3000 166.1526 665.0710 2796.3801 0.0000 -217519.8178 28880.2080 0.0000 0.0000 0.0000 -185012.0061 0.0000 -185012.0061 -185012.0061 0.0000 20119.1374 -2974.6806 534946.2959 20119.1374 -2974.6806
ENERGY: 4000 173.2699 664.3466 2790.0703 0.0000 -218983.0733 29499.5650 0.0000 0.0000 0.0000 -185855.8216 0.0000 -185855.8216 -185855.8216 0.0000 20441.9324 -2798.2405 534946.2959 20441.9324 -2798.2405
ENERGY: 5000 166.0122 662.2401 2783.3081 0.0000 -219606.9450 29735.4194 0.0000 0.0000 0.0000 -186259.9653 0.0000 -186259.9653 -186259.9653 0.0000 20556.7503 -2744.7879 534946.2959 20556.7503 -2744.7879
ENERGY: 6000 166.3195 662.2889 2781.2089 0.0000 -220069.7431 29923.9048 0.0000 0.0000 0.0000 -186536.0209 0.0000 -186536.0209 -186536.0209 0.0000 20652.2578 -2699.7366 534946.2959 20652.2578 -2699.7366
