Info: SIMULATION PARAMETERS:
Info: TIMESTEP               2
Info: NUMBER OF STEPS        0
Info: STEPS PER CYCLE        10
Info: PERIODIC CELL BASIS 1  72.449 0 0
Info: PERIODIC CELL BASIS 2  0 93.247 0
Info: PERIODIC CELL BASIS 3  0 0 79.185
Info: PERIODIC CELL CENTER   -0.248 -0.156 -0.047
Info: WRAPPING WATERS AROUND PERIODIC BOUNDARIES ON OUTPUT.
Info: WRAPPING ALL CLUSTERS AROUND PERIODIC BOUNDARIES ON OUTPUT.
Info: FIRST LDB TIMESTEP     50
Info: LAST LDB TIMESTEP     -1
Info: HOM BACKGROUND SCALING 1
Info: PME BACKGROUND SCALING 1
Info: MIN ATOMS PER PATCH    40
Info: INITIAL TEMPERATURE    0
Info: CENTER OF MASS MOVING INITIALLY? NO
Info: DIELECTRIC             1
Info: EXCLUDE                SCALED ONE-FOUR
Info: 1-4 ELECTROSTATICS SCALED BY 0.833333
Info: MODIFIED 1-4 VDW PARAMETERS WILL BE USED
Info: NO DCD TRAJECTORY OUTPUT
Info: NO EXTENDED SYSTEM TRAJECTORY OUTPUT
Info: NO VELOCITY DCD OUTPUT
Info: NO FORCE DCD OUTPUT
Info: OUTPUT FILENAME        ../replicas/rep88/equilibration/eq0
Info: NO RESTART FILE
Info: SWITCHING ACTIVE
Info: SWITCHING ON           10
Info: SWITCHING OFF          12
Info: PAIRLIST DISTANCE      13.5
Info: PAIRLIST SHRINK RATE   0.01
Info: PAIRLIST GROW RATE     0.01
Info: PAIRLIST TRIGGER       0.3
Info: PAIRLISTS PER CYCLE    2
Info: PAIRLISTS ENABLED
Info: MARGIN                 0
Info: HYDROGEN GROUP CUTOFF  2.5
Info: PATCH DIMENSION        16
Info: ENERGY OUTPUT STEPS    500
Info: CROSSTERM ENERGY INCLUDED IN DIHEDRAL
Info: TIMING OUTPUT STEPS    5000
Info: PRESSURE OUTPUT STEPS  500
Info: HARMONIC CONSTRAINTS ACTIVE
Info: HARMONIC CONS EXP      2
Info: HARMONIC CONS SCALING  10
Info: CONJUGATE GRADIENT MINIMIZATION ACTIVE
Info: LINE MINIMIZATION GOAL = 0.001
Info: BABY STEP SIZE = 0.01
Info: TINY STEP SIZE = 1e-06
Info: PARTICLE MESH EWALD (PME) ACTIVE
Info: PME TOLERANCE               1e-06
Info: PME EWALD COEFFICIENT       0.257952
Info: PME INTERPOLATION ORDER     4
Info: PME GRID DIMENSIONS         80 96 80
Info: PME MAXIMUM GRID SPACING    1
Info: FULL ELECTROSTATIC EVALUATION FREQUENCY      2
Info: USING VERLET I (r-RESPA) MTS SCHEME.
Info: C1 SPLITTING OF LONG RANGE ELECTROSTATICS
Info: PLACING ATOMS IN PATCHES BY HYDROGEN GROUPS
Info: RIGID BONDS TO HYDROGEN : ALL
Info:         ERROR TOLERANCE : 1e-05
Info:          MAX ITERATIONS : 100
Info: RIGID WATER USING SETTLE ALGORITHM
Info: RANDOM NUMBER SEED     1503690771
Info: USE HYDROGEN BONDS?    NO
Info: Using AMBER format force field!
Info: AMBER PARM FILE        ../build/complex.top
Info: COORDINATE PDB         ../build/complex.pdb
Info: Exclusions in PARM file will be ignored!
Info: SCNB (VDW SCALING)     2
Info: USING ARITHMETIC MEAN TO COMBINE L-J SIGMA PARAMETERS
Info: SUMMARY OF PARAMETERS:
Info: 71 BONDS
Info: 145 ANGLES
Info: 76 DIHEDRAL
Info: 0 IMPROPER
Info: 0 CROSSTERM
Info: 0 VDW
Info: 190 VDW_PAIRS
Info: 0 NBTHOLE_PAIRS
Info: STRUCTURE SUMMARY:
Info: 49394 ATOMS
Info: 49448 BONDS
Info: 8698 ANGLES
Info: 18780 DIHEDRALS
Info: 0 IMPROPERS
Info: 0 CROSSTERMS
Info: 0 EXCLUSIONS
Info: 2336 CONSTRAINTS
Info: 47058 RIGID BONDS
Info: 101124 DEGREES OF FREEDOM
Info: 17225 HYDROGEN GROUPS
Info: 4 ATOMS IN LARGEST HYDROGEN GROUP
Info: 17225 MIGRATION GROUPS
Info: 4 ATOMS IN LARGEST MIGRATION GROUP
Info: TOTAL MASS = 301478 amu
Info: TOTAL CHARGE = 1.00115e-05 e
Info: MASS DENSITY = 0.935846 g/cm^3
Info: ATOM DENSITY = 0.0923345 atoms/A^3
Info: ADDED 70656 IMPLICIT EXCLUSIONS
Info: NONBONDED TABLE R-SQUARED SPACING: 0.0625
Info: NONBONDED TABLE SIZE: 769 POINTS
Info: REMOVING COM VELOCITY 0 0 0
TCL: Minimizing for 100 steps
ETITLE: TS BOND ANGLE DIHED IMPRP ELECT VDW BOUNDARY MISC KINETIC TOTAL TEMP POTENTIAL TOTAL3 TEMPAVG PRESSURE GPRESSURE VOLUME PRESSAVG GPRESSAVG
ENERGY: 0 155.4176 1012.2698 2855.7272 0.0000 -154496.7910 207729.2052 0.0468 0.0000 0.0000 57255.8756 0.0000 57255.8756 57255.8756 0.0000 116350.2532 86546.1670 534946.2959 116350.2532 86546.1670
ENERGY: 20 304.7562 935.7913 2893.4663 0.0000 -158672.9414 17936.6590 143.9455 0.0000 0.0000 -136458.3232 0.0000 -136458.3232 -136458.3232 0.0000 16523.9382 -239.4564 534946.2959 16523.9382 -239.4564
ENERGY: 40 198.7473 799.5732 2896.9273 0.0000 -162811.4523 16417.9539 221.3031 0.0000 0.0000 -142276.9475 0.0000 -142276.9475 -142276.9475 0.0000 15011.2704 -2135.4696 534946.2959 15011.2704 -2135.4696
ENERGY: 60 130.5280 715.3439 2898.2166 0.0000 -167496.1596 15446.7535 315.2797 0.0000 0.0000 -147990.0379 0.0000 -147990.0379 -147990.0379 0.0000 13793.8831 -3799.3995 534946.2959 13793.8831 -3799.3995
ENERGY: 80 431.2707 765.6302 2904.3789 0.0000 -169937.5398 15121.1512 372.0125 0.0000 0.0000 -150343.0964 0.0000 -150343.0964 -150343.0964 0.0000 13270.3280 -4577.2482 534946.2959 13270.3280 -4577.2482
ENERGY: 100 129.7117 708.0640 2904.2782 0.0000 -171050.0654 15018.6539 384.2002 0.0000 0.0000 -151905.1574 0.0000 -151905.1574 -151905.1574 0.0000 13092.9130 -4843.6305 534946.2959 13092.9130 -4843.6305
TCL: Setting parameter constraintScaling to 5.0
TCL: Minimizing for 100 steps
ETITLE: TS BOND ANGLE DIHED IMPRP ELECT VDW BOUNDARY MISC KINETIC TOTAL TEMP POTENTIAL TOTAL3 TEMPAVG PRESSURE GPRESSURE VOLUME PRESSAVG GPRESSAVG
ENERGY: 100 129.7117 708.0640 2904.2782 0.0000 -171050.0654 15018.6539 192.1001 0.0000 0.0000 -152097.2574 0.0000 -152097.2574 -152097.2574 0.0000 13703.5082 -22944.4541 534946.2959 13703.5082 -22944.4541
ENERGY: 120 118.6812 680.2873 2909.9067 0.0000 -172396.3063 14830.1210 259.9547 0.0000 0.0000 -153597.3555 0.0000 -153597.3555 -153597.3555 0.0000 13320.9488 -4756.3051 534946.2959 13320.9488 -4756.3051
ENERGY: 140 109.1469 671.1467 2912.0863 0.0000 -174830.2290 14716.1441 337.7299 0.0000 0.0000 -156083.9750 0.0000 -156083.9750 -156083.9750 0.0000 12908.9641 -5423.1375 534946.2959 12908.9641 -5423.1375
ENERGY: 160 125.8474 667.1513 2914.1924 0.0000 -175967.0656 14735.1354 362.9191 0.0000 0.0000 -157161.8199 0.0000 -157161.8199 -157161.8199 0.0000 12806.8923 -5643.3793 534946.2959 12806.8923 -5643.3793
ENERGY: 180 303.4689 659.6859 2917.2968 0.0000 -177408.8029 14815.0211 395.3844 0.0000 0.0000 -158317.9459 0.0000 -158317.9459 -158317.9459 0.0000 12699.3129 -5900.4676 534946.2959 12699.3129 -5900.4676
ENERGY: 200 109.2094 628.4658 2923.3571 0.0000 -179543.6077 15071.1150 441.8742 0.0000 0.0000 -160369.5861 0.0000 -160369.5861 -160369.5861 0.0000 12659.9894 -6154.8361 534946.2959 12659.9894 -6154.8361
TCL: Setting parameter constraintScaling to 2.5
TCL: Minimizing for 100 steps
ETITLE: TS BOND ANGLE DIHED IMPRP ELECT VDW BOUNDARY MISC KINETIC TOTAL TEMP POTENTIAL TOTAL3 TEMPAVG PRESSURE GPRESSURE VOLUME PRESSAVG GPRESSAVG
ENERGY: 200 109.2094 628.4658 2923.3571 0.0000 -179543.6077 15071.1150 220.9371 0.0000 0.0000 -160590.5232 0.0000 -160590.5232 -160590.5232 0.0000 13208.4079 -25273.9589 534946.2959 13208.4079 -25273.9589
ENERGY: 220 169.0172 639.6171 2924.9511 0.0000 -180451.9411 15113.7599 291.1770 0.0000 0.0000 -161313.4188 0.0000 -161313.4188 -161313.4188 0.0000 13002.6152 -5917.1895 534946.2959 13002.6152 -5917.1895
ENERGY: 240 251.7316 643.0965 2921.3959 0.0000 -181893.8561 15358.7622 339.6192 0.0000 0.0000 -162379.2506 0.0000 -162379.2506 -162379.2506 0.0000 12963.8552 -6110.8031 534946.2959 12963.8552 -6110.8031
ENERGY: 260 173.8828 638.9174 2923.9066 0.0000 -184188.1476 15909.9169 438.0007 0.0000 0.0000 -164103.5232 0.0000 -164103.5232 -164103.5232 0.0000 13009.2313 -6309.8143 534946.2959 13009.2313 -6309.8143
ENERGY: 280 146.3714 648.7301 2918.2285 0.0000 -184720.2399 16071.0680 428.0635 0.0000 0.0000 -164507.7784 0.0000 -164507.7784 -164507.7784 0.0000 13128.4085 -6264.1359 534946.2959 13128.4085 -6264.1359
ENERGY: 300 230.1172 689.3396 2927.3414 0.0000 -186403.7781 16619.0641 425.9463 0.0000 0.0000 -165511.9695 0.0000 -165511.9695 -165511.9695 0.0000 13377.8469 -6205.6196 534946.2959 13377.8469 -6205.6196
TCL: Setting parameter constraintScaling to 1.25
TCL: Minimizing for 100 steps
ETITLE: TS BOND ANGLE DIHED IMPRP ELECT VDW BOUNDARY MISC KINETIC TOTAL TEMP POTENTIAL TOTAL3 TEMPAVG PRESSURE GPRESSURE VOLUME PRESSAVG GPRESSAVG
ENERGY: 300 230.1172 689.3396 2927.3414 0.0000 -186403.7781 16619.0641 212.9731 0.0000 0.0000 -165724.9426 0.0000 -165724.9426 -165724.9426 0.0000 13788.6320 -26287.7828 534946.2959 13788.6320 -26287.7828
ENERGY: 320 177.7756 662.6016 2910.6974 0.0000 -186908.7295 16725.6710 251.1914 0.0000 0.0000 -166180.7926 0.0000 -166180.7926 -166180.7926 0.0000 13770.1171 -5864.2541 534946.2959 13770.1171 -5864.2541
ENERGY: 340 200.9571 671.1153 2916.6832 0.0000 -188121.8310 17049.8449 327.2722 0.0000 0.0000 -166955.9585 0.0000 -166955.9585 -166955.9585 0.0000 13736.1836 -6017.1236 534946.2959 13736.1836 -6017.1236
ENERGY: 360 131.4008 640.9227 2905.1988 0.0000 -188774.3586 17270.7470 351.4592 0.0000 0.0000 -167474.6300 0.0000 -167474.6300 -167474.6300 0.0000 13819.1460 -6030.8943 534946.2959 13819.1460 -6030.8943
ENERGY: 380 213.0674 657.2112 2902.8326 0.0000 -189841.6873 17671.4243 350.4816 0.0000 0.0000 -168046.6703 0.0000 -168046.6703 -168046.6703 0.0000 14041.4924 -5934.2930 534946.2959 14041.4924 -5934.2930
ENERGY: 400 174.4670 665.8464 2905.4893 0.0000 -190929.0003 18077.0492 363.3864 0.0000 0.0000 -168742.7620 0.0000 -168742.7620 -168742.7620 0.0000 14219.5104 -5871.0680 534946.2959 14219.5104 -5871.0680
TCL: Setting parameter constraintScaling to 0.625
TCL: Minimizing for 100 steps
ETITLE: TS BOND ANGLE DIHED IMPRP ELECT VDW BOUNDARY MISC KINETIC TOTAL TEMP POTENTIAL TOTAL3 TEMPAVG PRESSURE GPRESSURE VOLUME PRESSAVG GPRESSAVG
ENERGY: 400 174.4670 665.8464 2905.4893 0.0000 -190929.0003 18077.0492 181.6932 0.0000 0.0000 -168924.4553 0.0000 -168924.4553 -168924.4553 0.0000 14504.0416 -26645.5153 534946.2959 14504.0416 -26645.5153
ENERGY: 420 246.8915 729.1331 2903.9596 0.0000 -191657.9053 18284.6349 233.8802 0.0000 0.0000 -169259.4060 0.0000 -169259.4060 -169259.4060 0.0000 14472.4506 -5715.1541 534946.2959 14472.4506 -5715.1541
ENERGY: 440 168.2892 693.3259 2895.2964 0.0000 -192643.1523 18620.9158 288.4475 0.0000 0.0000 -169976.8775 0.0000 -169976.8775 -169976.8775 0.0000 14500.0901 -5763.9875 534946.2959 14500.0901 -5763.9875
ENERGY: 460 175.4554 673.0113 2895.1611 0.0000 -192941.7093 18755.8400 265.1477 0.0000 0.0000 -170177.0937 0.0000 -170177.0937 -170177.0937 0.0000 14631.8927 -5671.4864 534946.2959 14631.8927 -5671.4864
ENERGY: 480 219.9266 754.4202 2938.1000 0.0000 -194043.8308 19282.4619 248.6557 0.0000 0.0000 -170600.2664 0.0000 -170600.2664 -170600.2664 0.0000 15005.0241 -5445.1389 534946.2959 15005.0241 -5445.1389
ENERGY: 500 146.1263 671.8351 2918.7230 0.0000 -195816.2737 20086.9957 299.1756 0.0000 0.0000 -171693.4180 0.0000 -171693.4180 -171693.4180 0.0000 15383.3753 -5252.4771 534946.2959 15383.3753 -5252.4771
TCL: Setting parameter constraintScaling to 0.3125
TCL: Minimizing for 100 steps
ETITLE: TS BOND ANGLE DIHED IMPRP ELECT VDW BOUNDARY MISC KINETIC TOTAL TEMP POTENTIAL TOTAL3 TEMPAVG PRESSURE GPRESSURE VOLUME PRESSAVG GPRESSAVG
ENERGY: 500 146.1263 671.8351 2918.7230 0.0000 -195816.2737 20086.9957 149.5878 0.0000 0.0000 -171843.0058 0.0000 -171843.0058 -171843.0058 0.0000 15584.4646 -26720.2041 534946.2959 15584.4646 -26720.2041
ENERGY: 520 153.9570 643.2854 2872.4626 0.0000 -196145.6019 20081.2075 173.3695 0.0000 0.0000 -172221.3200 0.0000 -172221.3200 -172221.3200 0.0000 15444.8212 -5225.3302 534946.2959 15444.8212 -5225.3302
ENERGY: 540 178.1172 667.1606 2875.4484 0.0000 -196474.5677 20149.7665 198.7418 0.0000 0.0000 -172405.3331 0.0000 -172405.3331 -172405.3331 0.0000 15385.3932 -5320.5549 534946.2959 15385.3932 -5320.5549
ENERGY: 560 169.0731 680.4822 2874.3939 0.0000 -196896.6699 20281.8236 214.3431 0.0000 0.0000 -172676.5540 0.0000 -172676.5540 -172676.5540 0.0000 15404.7653 -5356.8083 534946.2959 15404.7653 -5356.8083
ENERGY: 580 160.0489 665.6160 2874.9509 0.0000 -197149.0737 20394.4187 199.4792 0.0000 0.0000 -172854.5600 0.0000 -172854.5600 -172854.5600 0.0000 15542.6528 -5242.4396 534946.2959 15542.6528 -5242.4396
ENERGY: 600 168.6289 712.1767 2919.5321 0.0000 -198082.2912 20851.0337 204.4343 0.0000 0.0000 -173226.4855 0.0000 -173226.4855 -173226.4855 0.0000 15875.1384 -5027.6389 534946.2959 15875.1384 -5027.6389
TCL: Setting parameter constraintScaling to 0.15625
TCL: Minimizing for 100 steps
ETITLE: TS BOND ANGLE DIHED IMPRP ELECT VDW BOUNDARY MISC KINETIC TOTAL TEMP POTENTIAL TOTAL3 TEMPAVG PRESSURE GPRESSURE VOLUME PRESSAVG GPRESSAVG
ENERGY: 600 168.6289 712.1767 2919.5321 0.0000 -198082.2912 20851.0337 102.2171 0.0000 0.0000 -173328.7026 0.0000 -173328.7026 -173328.7026 0.0000 15994.4864 -26840.1099 534946.2959 15994.4864 -26840.1099
ENERGY: 620 216.5355 715.2298 2861.3560 0.0000 -198433.2390 20851.8428 119.0871 0.0000 0.0000 -173669.1877 0.0000 -173669.1877 -173669.1877 0.0000 15827.5719 -5120.4496 534946.2959 15827.5719 -5120.4496
ENERGY: 640 175.4798 668.7292 2860.3434 0.0000 -198620.6634 20908.6262 127.6560 0.0000 0.0000 -173879.8289 0.0000 -173879.8289 -173879.8289 0.0000 15817.9887 -5128.6438 534946.2959 15817.9887 -5128.6438
ENERGY: 660 174.8727 683.7560 2864.4602 0.0000 -198946.0067 21017.0352 135.7649 0.0000 0.0000 -174070.1176 0.0000 -174070.1176 -174070.1176 0.0000 15828.1159 -5160.5685 534946.2959 15828.1159 -5160.5685
ENERGY: 680 164.1555 663.0553 2854.1933 0.0000 -199139.7667 21091.9492 129.4604 0.0000 0.0000 -174236.9530 0.0000 -174236.9530 -174236.9530 0.0000 15950.7870 -5065.2688 534946.2959 15950.7870 -5065.2688
ENERGY: 700 172.6290 701.0465 2883.6067 0.0000 -199855.9686 21430.3184 133.4335 0.0000 0.0000 -174534.9345 0.0000 -174534.9345 -174534.9345 0.0000 16178.4146 -4933.1939 534946.2959 16178.4146 -4933.1939
TCL: Setting parameter constraintScaling to 0.078125
TCL: Minimizing for 100 steps
ETITLE: TS BOND ANGLE DIHED IMPRP ELECT VDW BOUNDARY MISC KINETIC TOTAL TEMP POTENTIAL TOTAL3 TEMPAVG PRESSURE GPRESSURE VOLUME PRESSAVG GPRESSAVG
ENERGY: 700 172.6290 701.0465 2883.6067 0.0000 -199855.9686 21430.3184 66.7167 0.0000 0.0000 -174601.6512 0.0000 -174601.6512 -174601.6512 0.0000 16247.6723 -27009.2001 534946.2959 16247.6723 -27009.2001
ENERGY: 720 210.4894 710.6388 2845.3264 0.0000 -200150.2746 21461.1474 73.9694 0.0000 0.0000 -174848.7032 0.0000 -174848.7032 -174848.7032 0.0000 16173.3735 -4976.1801 534946.2959 16173.3735 -4976.1801
ENERGY: 740 178.1222 668.2347 2844.9798 0.0000 -200310.1470 21510.4358 77.6559 0.0000 0.0000 -175030.7185 0.0000 -175030.7185 -175030.7185 0.0000 16148.0112 -4999.3505 534946.2959 16148.0112 -4999.3505
ENERGY: 760 214.2121 692.3305 2849.5014 0.0000 -200881.6778 21714.8018 85.4346 0.0000 0.0000 -175325.3973 0.0000 -175325.3973 -175325.3973 0.0000 16216.7646 -5000.9783 534946.2959 16216.7646 -5000.9783
ENERGY: 780 170.8681 668.6506 2839.1493 0.0000 -201191.7341 21830.7058 86.7164 0.0000 0.0000 -175595.6439 0.0000 -175595.6439 -175595.6439 0.0000 16311.0219 -4944.0928 534946.2959 16311.0219 -4944.0928
ENERGY: 800 180.1162 657.5678 2836.1556 0.0000 -201534.3368 21989.4223 86.2932 0.0000 0.0000 -175784.7817 0.0000 -175784.7817 -175784.7817 0.0000 16434.6790 -4868.4513 534946.2959 16434.6790 -4868.4513
TCL: Setting parameter constraintScaling to 0.0390625
TCL: Minimizing for 100 steps
ETITLE: TS BOND ANGLE DIHED IMPRP ELECT VDW BOUNDARY MISC KINETIC TOTAL TEMP POTENTIAL TOTAL3 TEMPAVG PRESSURE GPRESSURE VOLUME PRESSAVG GPRESSAVG
ENERGY: 800 180.1162 657.5678 2836.1556 0.0000 -201534.3368 21989.4223 43.1466 0.0000 0.0000 -175827.9283 0.0000 -175827.9283 -175827.9283 0.0000 16474.4794 -27178.9326 534946.2959 16474.4794 -27178.9326
ENERGY: 820 158.9914 647.8527 2834.8423 0.0000 -201605.0353 22007.3977 43.6737 0.0000 0.0000 -175912.2775 0.0000 -175912.2775 -175912.2775 0.0000 16465.5112 -4835.3338 534946.2959 16465.5112 -4835.3338
ENERGY: 840 346.8637 697.2973 2832.1695 0.0000 -201910.0232 22117.5920 46.1352 0.0000 0.0000 -175869.9654 0.0000 -175869.9654 -175869.9654 0.0000 16482.8988 -4855.7799 534946.2959 16482.8988 -4855.7799
ENERGY: 860 211.0657 664.1799 2828.9204 0.0000 -202398.9512 22308.6976 49.1603 0.0000 0.0000 -176336.9273 0.0000 -176336.9273 -176336.9273 0.0000 16586.7190 -4813.6664 534946.2959 16586.7190 -4813.6664
ENERGY: 880 165.1738 652.3967 2826.9649 0.0000 -202495.1189 22348.8865 49.0916 0.0000 0.0000 -176452.6055 0.0000 -176452.6055 -176452.6055 0.0000 16613.8042 -4790.8340 534946.2959 16613.8042 -4790.8340
ENERGY: 900 167.8057 644.2633 2827.2206 0.0000 -202862.9523 22510.2201 50.0338 0.0000 0.0000 -176663.4088 0.0000 -176663.4088 -176663.4088 0.0000 16724.6646 -4725.7414 534946.2959 16724.6646 -4725.7414
TCL: Setting parameter constraintScaling to 0.01953125
TCL: Minimizing for 100 steps
ETITLE: TS BOND ANGLE DIHED IMPRP ELECT VDW BOUNDARY MISC KINETIC TOTAL TEMP POTENTIAL TOTAL3 TEMPAVG PRESSURE GPRESSURE VOLUME PRESSAVG GPRESSAVG
ENERGY: 900 167.8057 644.2633 2827.2206 0.0000 -202862.9523 22510.2201 25.0169 0.0000 0.0000 -176688.4257 0.0000 -176688.4257 -176688.4257 0.0000 16746.5459 -27228.0555 534946.2959 16746.5459 -27228.0555
ENERGY: 920 197.2741 656.5306 2824.0839 0.0000 -203057.2956 22580.9137 25.8814 0.0000 0.0000 -176772.6119 0.0000 -176772.6119 -176772.6119 0.0000 16766.2647 -4709.6713 534946.2959 16766.2647 -4709.6713
ENERGY: 940 169.3478 656.2585 2821.1847 0.0000 -203462.8378 22743.5917 27.2854 0.0000 0.0000 -177045.1697 0.0000 -177045.1697 -177045.1697 0.0000 16835.7909 -4684.9711 534946.2959 16835.7909 -4684.9711
ENERGY: 960 169.3037 655.2519 2820.0134 0.0000 -203565.9659 22788.1209 27.5236 0.0000 0.0000 -177105.7523 0.0000 -177105.7523 -177105.7523 0.0000 16855.4036 -4677.2880 534946.2959 16855.4036 -4677.2880
ENERGY: 980 192.9794 654.8671 2821.9966 0.0000 -203990.7640 22981.7241 28.1994 0.0000 0.0000 -177310.9975 0.0000 -177310.9975 -177310.9975 0.0000 16979.2502 -4605.3362 534946.2959 16979.2502 -4605.3362
ENERGY: 1000 167.4465 652.1355 2819.6898 0.0000 -204906.7811 23417.9963 30.7785 0.0000 0.0000 -177818.7346 0.0000 -177818.7346 -177818.7346 0.0000 17217.0908 -4468.7531 534946.2959 17217.0908 -4468.7531
TCL: Setting parameter constraintScaling to 0
TCL: Minimizing for 5000 steps
ETITLE: TS BOND ANGLE DIHED IMPRP ELECT VDW BOUNDARY MISC KINETIC TOTAL TEMP POTENTIAL TOTAL3 TEMPAVG PRESSURE GPRESSURE VOLUME PRESSAVG GPRESSAVG
ENERGY: 1000 167.4465 652.1355 2819.6898 0.0000 -204906.7811 23417.9963 0.0000 0.0000 0.0000 -177849.5131 0.0000 -177849.5131 -177849.5131 0.0000 17242.3195 -27222.2942 534946.2959 17242.3195 -27222.2942
ENERGY: 2000 167.5642 660.8541 2800.9423 0.0000 -214647.8566 27702.1268 0.0000 0.0000 0.0000 -183316.3692 0.0000 -183316.3692 -183316.3692 0.0000 19489.5882 -3304.1454 534946.2959 19489.5882 -3304.1454
ENERGY: 3000 178.6207 670.9555 2797.2333 0.0000 -217435.4089 28835.2597 0.0000 0.0000 0.0000 -184953.3398 0.0000 -184953.3398 -184953.3398 0.0000 20084.8317 -2995.0206 534946.2959 20084.8317 -2995.0206
ENERGY: 4000 166.0457 665.8279 2788.6716 0.0000 -218766.1576 29404.8677 0.0000 0.0000 0.0000 -185740.7447 0.0000 -185740.7447 -185740.7447 0.0000 20393.7203 -2824.4481 534946.2959 20393.7203 -2824.4481
ENERGY: 5000 167.4238 665.8382 2782.2764 0.0000 -219477.5872 29686.3775 0.0000 0.0000 0.0000 -186175.6713 0.0000 -186175.6713 -186175.6713 0.0000 20526.0350 -2764.3808 534946.2959 20526.0350 -2764.3808
ENERGY: 6000 166.4634 665.8827 2778.9820 0.0000 -219903.8950 29817.9945 0.0000 0.0000 0.0000 -186474.5724 0.0000 -186474.5724 -186474.5724 0.0000 20595.3745 -2735.7720 534946.2959 20595.3745 -2735.7720
