Info: SIMULATION PARAMETERS:
Info: TIMESTEP               2
Info: NUMBER OF STEPS        0
Info: STEPS PER CYCLE        10
Info: PERIODIC CELL BASIS 1  72.449 0 0
Info: PERIODIC CELL BASIS 2  0 93.247 0
Info: PERIODIC CELL BASIS 3  0 0 79.185
Info: PERIODIC CELL CENTER   -0.248 -0.156 -0.047
Info: WRAPPING WATERS AROUND PERIODIC BOUNDARIES ON OUTPUT.
Info: WRAPPING ALL CLUSTERS AROUND PERIODIC BOUNDARIES ON OUTPUT.
Info: FIRST LDB TIMESTEP     50
Info: LAST LDB TIMESTEP     -1
Info: HOM BACKGROUND SCALING 1
Info: PME BACKGROUND SCALING 1
Info: MIN ATOMS PER PATCH    40
Info: INITIAL TEMPERATURE    0
Info: CENTER OF MASS MOVING INITIALLY? NO
Info: DIELECTRIC             1
Info: EXCLUDE                SCALED ONE-FOUR
Info: 1-4 ELECTROSTATICS SCALED BY 0.833333
Info: MODIFIED 1-4 VDW PARAMETERS WILL BE USED
Info: NO DCD TRAJECTORY OUTPUT
Info: NO EXTENDED SYSTEM TRAJECTORY OUTPUT
Info: NO VELOCITY DCD OUTPUT
Info: NO FORCE DCD OUTPUT
Info: OUTPUT FILENAME        ../replicas/rep84/equilibration/eq0
Info: NO RESTART FILE
Info: SWITCHING ACTIVE
Info: SWITCHING ON           10
Info: SWITCHING OFF          12
Info: PAIRLIST DISTANCE      13.5
Info: PAIRLIST SHRINK RATE   0.01
Info: PAIRLIST GROW RATE     0.01
Info: PAIRLIST TRIGGER       0.3
Info: PAIRLISTS PER CYCLE    2
Info: PAIRLISTS ENABLED
Info: MARGIN                 0
Info: HYDROGEN GROUP CUTOFF  2.5
Info: PATCH DIMENSION        16
Info: ENERGY OUTPUT STEPS    500
Info: CROSSTERM ENERGY INCLUDED IN DIHEDRAL
Info: TIMING OUTPUT STEPS    5000
Info: PRESSURE OUTPUT STEPS  500
Info: HARMONIC CONSTRAINTS ACTIVE
Info: HARMONIC CONS EXP      2
Info: HARMONIC CONS SCALING  10
Info: CONJUGATE GRADIENT MINIMIZATION ACTIVE
Info: LINE MINIMIZATION GOAL = 0.001
Info: BABY STEP SIZE = 0.01
Info: TINY STEP SIZE = 1e-06
Info: PARTICLE MESH EWALD (PME) ACTIVE
Info: PME TOLERANCE               1e-06
Info: PME EWALD COEFFICIENT       0.257952
Info: PME INTERPOLATION ORDER     4
Info: PME GRID DIMENSIONS         80 96 80
Info: PME MAXIMUM GRID SPACING    1
Info: FULL ELECTROSTATIC EVALUATION FREQUENCY      2
Info: USING VERLET I (r-RESPA) MTS SCHEME.
Info: C1 SPLITTING OF LONG RANGE ELECTROSTATICS
Info: PLACING ATOMS IN PATCHES BY HYDROGEN GROUPS
Info: RIGID BONDS TO HYDROGEN : ALL
Info:         ERROR TOLERANCE : 1e-05
Info:          MAX ITERATIONS : 100
Info: RIGID WATER USING SETTLE ALGORITHM
Info: RANDOM NUMBER SEED     1503690771
Info: USE HYDROGEN BONDS?    NO
Info: Using AMBER format force field!
Info: AMBER PARM FILE        ../build/complex.top
Info: COORDINATE PDB         ../build/complex.pdb
Info: Exclusions in PARM file will be ignored!
Info: SCNB (VDW SCALING)     2
Info: USING ARITHMETIC MEAN TO COMBINE L-J SIGMA PARAMETERS
Info: SUMMARY OF PARAMETERS:
Info: 71 BONDS
Info: 145 ANGLES
Info: 76 DIHEDRAL
Info: 0 IMPROPER
Info: 0 CROSSTERM
Info: 0 VDW
Info: 190 VDW_PAIRS
Info: 0 NBTHOLE_PAIRS
Info: STRUCTURE SUMMARY:
Info: 49394 ATOMS
Info: 49448 BONDS
Info: 8698 ANGLES
Info: 18780 DIHEDRALS
Info: 0 IMPROPERS
Info: 0 CROSSTERMS
Info: 0 EXCLUSIONS
Info: 2336 CONSTRAINTS
Info: 47058 RIGID BONDS
Info: 101124 DEGREES OF FREEDOM
Info: 17225 HYDROGEN GROUPS
Info: 4 ATOMS IN LARGEST HYDROGEN GROUP
Info: 17225 MIGRATION GROUPS
Info: 4 ATOMS IN LARGEST MIGRATION GROUP
Info: TOTAL MASS = 301478 amu
Info: TOTAL CHARGE = 1.00115e-05 e
Info: MASS DENSITY = 0.935846 g/cm^3
Info: ATOM DENSITY = 0.0923345 atoms/A^3
Info: ADDED 70656 IMPLICIT EXCLUSIONS
Info: NONBONDED TABLE R-SQUARED SPACING: 0.0625
Info: NONBONDED TABLE SIZE: 769 POINTS
Info: REMOVING COM VELOCITY 0 0 0
TCL: Minimizing for 100 steps
ETITLE: TS BOND ANGLE DIHED IMPRP ELECT VDW BOUNDARY MISC KINETIC TOTAL TEMP POTENTIAL TOTAL3 TEMPAVG PRESSURE GPRESSURE VOLUME PRESSAVG GPRESSAVG
ENERGY: 0 155.4176 1012.2698 2855.7272 0.0000 -154496.7911 207729.2052 0.0468 0.0000 0.0000 57255.8755 0.0000 57255.8755 57255.8755 0.0000 116350.2532 86546.1670 534946.2959 116350.2532 86546.1670
ENERGY: 20 304.7547 935.7911 2893.4663 0.0000 -158672.9402 17936.6595 143.9454 0.0000 0.0000 -136458.3231 0.0000 -136458.3231 -136458.3231 0.0000 16523.9388 -239.4557 534946.2959 16523.9388 -239.4557
ENERGY: 40 198.7450 799.5728 2896.9273 0.0000 -162811.4536 16417.9536 221.3030 0.0000 0.0000 -142276.9519 0.0000 -142276.9519 -142276.9519 0.0000 15011.2702 -2135.4700 534946.2959 15011.2702 -2135.4700
ENERGY: 60 130.5282 715.3440 2898.2166 0.0000 -167496.1586 15446.7537 315.2797 0.0000 0.0000 -147990.0366 0.0000 -147990.0366 -147990.0366 0.0000 13793.8833 -3799.3992 534946.2959 13793.8833 -3799.3992
ENERGY: 80 431.2729 765.6307 2904.3786 0.0000 -169937.5327 15121.1520 372.0123 0.0000 0.0000 -150343.0862 0.0000 -150343.0862 -150343.0862 0.0000 13270.3297 -4577.2464 534946.2959 13270.3297 -4577.2464
ENERGY: 100 119.3851 710.0599 2905.2590 0.0000 -171259.7117 14991.7871 387.3613 0.0000 0.0000 -152145.8593 0.0000 -152145.8593 -152145.8593 0.0000 13056.2656 -4908.1720 534946.2959 13056.2656 -4908.1720
TCL: Setting parameter constraintScaling to 5.0
TCL: Minimizing for 100 steps
ETITLE: TS BOND ANGLE DIHED IMPRP ELECT VDW BOUNDARY MISC KINETIC TOTAL TEMP POTENTIAL TOTAL3 TEMPAVG PRESSURE GPRESSURE VOLUME PRESSAVG GPRESSAVG
ENERGY: 100 119.3851 710.0599 2905.2590 0.0000 -171259.7117 14991.7871 193.6806 0.0000 0.0000 -152339.5399 0.0000 -152339.5399 -152339.5399 0.0000 13672.7717 -23021.8181 534946.2959 13672.7717 -23021.8181
ENERGY: 120 108.8821 687.5836 2912.9266 0.0000 -172865.8781 14798.2710 281.1914 0.0000 0.0000 -154077.0234 0.0000 -154077.0234 -154077.0234 0.0000 13218.2561 -4906.0148 534946.2959 13218.2561 -4906.0148
ENERGY: 140 309.4125 708.8635 2913.8025 0.0000 -174236.7182 14731.4789 326.6409 0.0000 0.0000 -155246.5198 0.0000 -155246.5198 -155246.5198 0.0000 12971.5222 -5303.2537 534946.2959 12971.5222 -5303.2537
ENERGY: 160 265.3419 683.1452 2923.1802 0.0000 -176275.8856 14757.3682 382.9101 0.0000 0.0000 -157263.9400 0.0000 -157263.9400 -157263.9400 0.0000 12740.8892 -5742.7293 534946.2959 12740.8892 -5742.7293
ENERGY: 180 268.8238 744.0964 2928.5662 0.0000 -178995.7838 15023.5769 473.3222 0.0000 0.0000 -159557.3983 0.0000 -159557.3983 -159557.3983 0.0000 12521.5851 -6223.5426 534946.2959 12521.5851 -6223.5426
ENERGY: 200 238.9693 694.0820 2941.3673 0.0000 -181556.6020 15587.1302 546.2724 0.0000 0.0000 -161548.7808 0.0000 -161548.7808 -161548.7808 0.0000 12582.6521 -6430.8116 534946.2959 12582.6521 -6430.8116
TCL: Setting parameter constraintScaling to 2.5
TCL: Minimizing for 100 steps
ETITLE: TS BOND ANGLE DIHED IMPRP ELECT VDW BOUNDARY MISC KINETIC TOTAL TEMP POTENTIAL TOTAL3 TEMPAVG PRESSURE GPRESSURE VOLUME PRESSAVG GPRESSAVG
ENERGY: 200 238.9693 694.0820 2941.3673 0.0000 -181556.6020 15587.1302 273.1362 0.0000 0.0000 -161821.9170 0.0000 -161821.9170 -161821.9170 0.0000 13229.5673 -25661.6443 534946.2959 13229.5673 -25661.6443
ENERGY: 220 251.1248 679.9011 2933.0263 0.0000 -182083.0256 15471.0197 338.5558 0.0000 0.0000 -162409.3980 0.0000 -162409.3980 -162409.3980 0.0000 12968.0543 -6100.8784 534946.2959 12968.0543 -6100.8784
ENERGY: 240 139.3130 665.7971 2928.6048 0.0000 -182462.6364 15494.3079 343.5752 0.0000 0.0000 -162891.0383 0.0000 -162891.0383 -162891.0383 0.0000 13034.3670 -6113.8352 534946.2959 13034.3670 -6113.8352
ENERGY: 260 164.4582 683.7622 2921.6030 0.0000 -183940.9694 15800.0914 385.4963 0.0000 0.0000 -163985.5583 0.0000 -163985.5583 -163985.5583 0.0000 13031.7771 -6252.8542 534946.2959 13031.7771 -6252.8542
ENERGY: 280 168.9809 700.8553 2917.5969 0.0000 -185422.1162 16228.4881 454.8591 0.0000 0.0000 -164951.3359 0.0000 -164951.3359 -164951.3359 0.0000 13143.2580 -6345.0131 534946.2959 13143.2580 -6345.0131
ENERGY: 300 126.6765 639.5315 2916.2502 0.0000 -186094.0583 16445.4952 481.3742 0.0000 0.0000 -165484.7306 0.0000 -165484.7306 -165484.7306 0.0000 13207.5842 -6349.5697 534946.2959 13207.5842 -6349.5697
TCL: Setting parameter constraintScaling to 1.25
TCL: Minimizing for 100 steps
ETITLE: TS BOND ANGLE DIHED IMPRP ELECT VDW BOUNDARY MISC KINETIC TOTAL TEMP POTENTIAL TOTAL3 TEMPAVG PRESSURE GPRESSURE VOLUME PRESSAVG GPRESSAVG
ENERGY: 300 126.6765 639.5315 2916.2502 0.0000 -186094.0583 16445.4952 240.6871 0.0000 0.0000 -165725.4177 0.0000 -165725.4177 -165725.4177 0.0000 13655.9277 -26359.4906 534946.2959 13655.9277 -26359.4906
ENERGY: 320 264.1636 657.9031 2911.4705 0.0000 -186863.7585 16636.8743 287.3983 0.0000 0.0000 -166105.9486 0.0000 -166105.9486 -166105.9486 0.0000 13611.1942 -6016.9821 534946.2959 13611.1942 -6016.9821
ENERGY: 340 253.1403 648.3213 2912.5384 0.0000 -187625.7474 16895.7212 306.0368 0.0000 0.0000 -166609.9895 0.0000 -166609.9895 -166609.9895 0.0000 13612.7302 -6061.1876 534946.2959 13612.7302 -6061.1876
ENERGY: 360 127.2945 663.4484 2906.9919 0.0000 -188975.3171 17367.6655 351.0234 0.0000 0.0000 -167558.8934 0.0000 -167558.8934 -167558.8934 0.0000 13914.1995 -5981.0354 534946.2959 13914.1995 -5981.0354
ENERGY: 380 198.1446 647.3528 2900.8952 0.0000 -190489.2358 17970.3939 404.2242 0.0000 0.0000 -168368.2250 0.0000 -168368.2250 -168368.2250 0.0000 14038.8505 -5981.8593 534946.2959 14038.8505 -5981.8593
ENERGY: 400 139.2438 654.3946 2901.6714 0.0000 -190701.4623 18013.0521 402.0347 0.0000 0.0000 -168591.0657 0.0000 -168591.0657 -168591.0657 0.0000 14163.0079 -5927.1219 534946.2959 14163.0079 -5927.1219
TCL: Setting parameter constraintScaling to 0.625
TCL: Minimizing for 100 steps
ETITLE: TS BOND ANGLE DIHED IMPRP ELECT VDW BOUNDARY MISC KINETIC TOTAL TEMP POTENTIAL TOTAL3 TEMPAVG PRESSURE GPRESSURE VOLUME PRESSAVG GPRESSAVG
ENERGY: 400 139.2438 654.3946 2901.6714 0.0000 -190701.4623 18013.0521 201.0174 0.0000 0.0000 -168792.0831 0.0000 -168792.0831 -168792.0831 0.0000 14464.4942 -26627.7506 534946.2959 14464.4942 -26627.7506
ENERGY: 420 173.7811 641.7128 2898.2577 0.0000 -190996.8301 18086.5162 216.3310 0.0000 0.0000 -168980.2313 0.0000 -168980.2313 -168980.2313 0.0000 14358.1194 -5723.7391 534946.2959 14358.1194 -5723.7391
ENERGY: 440 313.2217 684.0984 2892.8725 0.0000 -191776.2243 18315.3659 251.7367 0.0000 0.0000 -169318.9291 0.0000 -169318.9291 -169318.9291 0.0000 14337.0212 -5815.5005 534946.2959 14337.0212 -5815.5005
ENERGY: 460 199.8854 649.4068 2884.9561 0.0000 -192417.1252 18540.8351 268.1653 0.0000 0.0000 -169873.8765 0.0000 -169873.8765 -169873.8765 0.0000 14554.7831 -5718.9070 534946.2959 14554.7831 -5718.9070
ENERGY: 480 230.5618 659.5491 2889.5976 0.0000 -193541.9390 18982.7613 296.5970 0.0000 0.0000 -170482.8722 0.0000 -170482.8722 -170482.8722 0.0000 14678.6971 -5692.8998 534946.2959 14678.6971 -5692.8998
ENERGY: 500 149.3645 648.3033 2881.3240 0.0000 -193711.1668 19051.4449 296.2995 0.0000 0.0000 -170684.4306 0.0000 -170684.4306 -170684.4306 0.0000 14770.9979 -5636.9884 534946.2959 14770.9979 -5636.9884
TCL: Setting parameter constraintScaling to 0.3125
TCL: Minimizing for 100 steps
ETITLE: TS BOND ANGLE DIHED IMPRP ELECT VDW BOUNDARY MISC KINETIC TOTAL TEMP POTENTIAL TOTAL3 TEMPAVG PRESSURE GPRESSURE VOLUME PRESSAVG GPRESSAVG
ENERGY: 500 149.3645 648.3033 2881.3240 0.0000 -193711.1668 19051.4449 148.1497 0.0000 0.0000 -170832.5803 0.0000 -170832.5803 -170832.5803 0.0000 14962.4378 -26838.5657 534946.2959 14962.4378 -26838.5657
ENERGY: 520 157.6559 646.7204 2884.8419 0.0000 -193955.8021 19127.8267 158.0699 0.0000 0.0000 -170980.6873 0.0000 -170980.6873 -170980.6873 0.0000 14930.6066 -5490.1897 534946.2959 14930.6066 -5490.1897
ENERGY: 540 289.5750 660.2210 2884.9661 0.0000 -194776.2294 19428.2654 178.6708 0.0000 0.0000 -171334.5311 0.0000 -171334.5311 -171334.5311 0.0000 14973.0618 -5513.0140 534946.2959 14973.0618 -5513.0140
ENERGY: 560 160.9797 649.9321 2869.6671 0.0000 -195718.2424 19791.1087 200.3227 0.0000 0.0000 -172046.2322 0.0000 -172046.2322 -172046.2322 0.0000 15231.6403 -5400.1932 534946.2959 15231.6403 -5400.1932
ENERGY: 580 152.2386 643.5994 2866.9382 0.0000 -196501.6696 20113.1245 219.3599 0.0000 0.0000 -172506.4090 0.0000 -172506.4090 -172506.4090 0.0000 15353.8776 -5360.1959 534946.2959 15353.8776 -5360.1959
ENERGY: 600 175.4910 653.1793 2862.7089 0.0000 -196855.3445 20242.8734 219.6768 0.0000 0.0000 -172701.4151 0.0000 -172701.4151 -172701.4151 0.0000 15436.6300 -5323.5392 534946.2959 15436.6300 -5323.5392
TCL: Setting parameter constraintScaling to 0.15625
TCL: Minimizing for 100 steps
ETITLE: TS BOND ANGLE DIHED IMPRP ELECT VDW BOUNDARY MISC KINETIC TOTAL TEMP POTENTIAL TOTAL3 TEMPAVG PRESSURE GPRESSURE VOLUME PRESSAVG GPRESSAVG
ENERGY: 600 175.4910 653.1793 2862.7089 0.0000 -196855.3445 20242.8734 109.8384 0.0000 0.0000 -172811.2535 0.0000 -172811.2535 -172811.2535 0.0000 15558.2070 -26984.1076 534946.2959 15558.2070 -26984.1076
ENERGY: 620 164.0532 647.4846 2864.1441 0.0000 -197054.5995 20303.3248 115.0264 0.0000 0.0000 -172960.5664 0.0000 -172960.5664 -172960.5664 0.0000 15541.2506 -5235.5605 534946.2959 15541.2506 -5235.5605
ENERGY: 640 283.7374 670.5134 2855.9538 0.0000 -197644.1993 20516.1886 123.1547 0.0000 0.0000 -173194.6515 0.0000 -173194.6515 -173194.6515 0.0000 15622.9551 -5221.1431 534946.2959 15622.9551 -5221.1431
ENERGY: 660 159.1182 645.0656 2855.6678 0.0000 -198087.2460 20676.7664 130.2934 0.0000 0.0000 -173620.3346 0.0000 -173620.3346 -173620.3346 0.0000 15721.7925 -5176.4053 534946.2959 15721.7925 -5176.4053
ENERGY: 680 160.3459 655.2989 2852.7125 0.0000 -198326.5803 20766.4176 132.5830 0.0000 0.0000 -173759.2223 0.0000 -173759.2223 -173759.2223 0.0000 15756.7356 -5164.7893 534946.2959 15756.7356 -5164.7893
ENERGY: 700 186.2946 657.1696 2853.3729 0.0000 -198751.1519 20920.3294 137.4023 0.0000 0.0000 -173996.5833 0.0000 -173996.5833 -173996.5833 0.0000 15820.6358 -5153.5639 534946.2959 15820.6358 -5153.5639
TCL: Setting parameter constraintScaling to 0.078125
TCL: Minimizing for 100 steps
ETITLE: TS BOND ANGLE DIHED IMPRP ELECT VDW BOUNDARY MISC KINETIC TOTAL TEMP POTENTIAL TOTAL3 TEMPAVG PRESSURE GPRESSURE VOLUME PRESSAVG GPRESSAVG
ENERGY: 700 186.2946 657.1696 2853.3729 0.0000 -198751.1519 20920.3294 68.7011 0.0000 0.0000 -174065.2844 0.0000 -174065.2844 -174065.2844 0.0000 15890.4516 -27100.8275 534946.2959 15890.4516 -27100.8275
ENERGY: 720 169.6328 649.2180 2847.0936 0.0000 -198947.3443 20990.9996 70.8302 0.0000 0.0000 -174219.5701 0.0000 -174219.5701 -174219.5701 0.0000 15932.9984 -5064.4130 534946.2959 15932.9984 -5064.4130
ENERGY: 740 171.0019 648.5372 2846.7121 0.0000 -199270.8453 21102.4807 74.2771 0.0000 0.0000 -174427.8363 0.0000 -174427.8363 -174427.8363 0.0000 15970.0126 -5063.4520 534946.2959 15970.0126 -5063.4520
ENERGY: 760 242.4093 685.4933 2843.0560 0.0000 -199774.7974 21288.6549 78.9458 0.0000 0.0000 -174636.2381 0.0000 -174636.2381 -174636.2381 0.0000 16059.9134 -5037.9648 534946.2959 16059.9134 -5037.9648
ENERGY: 780 297.2018 750.2464 2850.8285 0.0000 -200130.7572 21421.1050 81.4692 0.0000 0.0000 -174729.9063 0.0000 -174729.9063 -174729.9063 0.0000 16090.8250 -5041.8102 534946.2959 16090.8250 -5041.8102
ENERGY: 800 189.9218 674.0143 2839.1560 0.0000 -200457.3839 21540.0020 83.9352 0.0000 0.0000 -175130.3546 0.0000 -175130.3546 -175130.3546 0.0000 16185.1946 -4993.6908 534946.2959 16185.1946 -4993.6908
TCL: Setting parameter constraintScaling to 0.0390625
TCL: Minimizing for 100 steps
ETITLE: TS BOND ANGLE DIHED IMPRP ELECT VDW BOUNDARY MISC KINETIC TOTAL TEMP POTENTIAL TOTAL3 TEMPAVG PRESSURE GPRESSURE VOLUME PRESSAVG GPRESSAVG
ENERGY: 800 189.9218 674.0143 2839.1560 0.0000 -200457.3839 21540.0020 41.9676 0.0000 0.0000 -175172.3222 0.0000 -175172.3222 -175172.3222 0.0000 16224.7327 -27173.2279 534946.2959 16224.7327 -27173.2279
ENERGY: 820 163.9560 646.4606 2835.6526 0.0000 -200644.9088 21608.5921 43.1377 0.0000 0.0000 -175347.1098 0.0000 -175347.1098 -175347.1098 0.0000 16252.5560 -4944.8576 534946.2959 16252.5560 -4944.8576
ENERGY: 840 170.9064 655.6848 2832.8818 0.0000 -201307.9849 21860.2780 46.8192 0.0000 0.0000 -175741.4147 0.0000 -175741.4147 -175741.4147 0.0000 16361.5654 -4910.0650 534946.2959 16361.5654 -4910.0650
ENERGY: 860 193.1983 670.8168 2828.3363 0.0000 -201771.2300 22047.9814 49.0643 0.0000 0.0000 -175981.8329 0.0000 -175981.8329 -175981.8329 0.0000 16440.5284 -4888.5482 534946.2959 16440.5284 -4888.5482
ENERGY: 880 217.5820 652.3590 2825.8084 0.0000 -202356.0143 22287.2078 51.1279 0.0000 0.0000 -176321.9292 0.0000 -176321.9292 -176321.9292 0.0000 16591.3188 -4805.0752 534946.2959 16591.3188 -4805.0752
ENERGY: 900 181.5272 665.6540 2822.2860 0.0000 -202913.9087 22518.7856 53.6721 0.0000 0.0000 -176671.9838 0.0000 -176671.9838 -176671.9838 0.0000 16713.8920 -4753.6439 534946.2959 16713.8920 -4753.6439
TCL: Setting parameter constraintScaling to 0.01953125
TCL: Minimizing for 100 steps
ETITLE: TS BOND ANGLE DIHED IMPRP ELECT VDW BOUNDARY MISC KINETIC TOTAL TEMP POTENTIAL TOTAL3 TEMPAVG PRESSURE GPRESSURE VOLUME PRESSAVG GPRESSAVG
ENERGY: 900 181.5272 665.6540 2822.2860 0.0000 -202913.9087 22518.7856 26.8360 0.0000 0.0000 -176698.8199 0.0000 -176698.8199 -176698.8199 0.0000 16736.9449 -27253.0417 534946.2959 16736.9449 -27253.0417
ENERGY: 920 246.2402 663.9574 2819.6987 0.0000 -203274.8549 22665.7520 28.3264 0.0000 0.0000 -176850.8803 0.0000 -176850.8803 -176850.8803 0.0000 16790.2037 -4713.9930 534946.2959 16790.2037 -4713.9930
ENERGY: 940 167.2049 659.3062 2817.5135 0.0000 -203706.3720 22849.1917 29.6524 0.0000 0.0000 -177183.5033 0.0000 -177183.5033 -177183.5033 0.0000 16882.3928 -4672.8449 534946.2959 16882.3928 -4672.8449
ENERGY: 960 164.9111 659.7410 2816.3719 0.0000 -203821.8242 22895.8218 29.9005 0.0000 0.0000 -177255.0779 0.0000 -177255.0779 -177255.0779 0.0000 16908.4995 -4662.8286 534946.2959 16908.4995 -4662.8286
ENERGY: 980 195.6669 664.8521 2814.6743 0.0000 -204208.1335 23066.2699 30.5278 0.0000 0.0000 -177436.1426 0.0000 -177436.1426 -177436.1426 0.0000 16998.0600 -4619.3670 534946.2959 16998.0600 -4619.3670
ENERGY: 1000 172.8777 657.8509 2812.5777 0.0000 -204664.2807 23265.9110 32.1259 0.0000 0.0000 -177722.9375 0.0000 -177722.9375 -177722.9375 0.0000 17100.9550 -4567.4955 534946.2959 17100.9550 -4567.4955
TCL: Setting parameter constraintScaling to 0
TCL: Minimizing for 5000 steps
ETITLE: TS BOND ANGLE DIHED IMPRP ELECT VDW BOUNDARY MISC KINETIC TOTAL TEMP POTENTIAL TOTAL3 TEMPAVG PRESSURE GPRESSURE VOLUME PRESSAVG GPRESSAVG
ENERGY: 1000 172.8777 657.8509 2812.5777 0.0000 -204664.2807 23265.9110 0.0000 0.0000 0.0000 -177755.0634 0.0000 -177755.0634 -177755.0634 0.0000 17126.8321 -27284.4306 534946.2959 17126.8321 -27284.4306
ENERGY: 2000 166.0590 663.2431 2802.3029 0.0000 -214450.9336 27627.5167 0.0000 0.0000 0.0000 -183191.8119 0.0000 -183191.8119 -183191.8119 0.0000 19447.8941 -3324.5718 534946.2959 19447.8941 -3324.5718
ENERGY: 3000 168.7232 668.9916 2796.9749 0.0000 -217497.5786 28952.9752 0.0000 0.0000 0.0000 -184909.9138 0.0000 -184909.9138 -184909.9138 0.0000 20157.4242 -2921.0540 534946.2959 20157.4242 -2921.0540
ENERGY: 4000 166.5628 665.7043 2788.3749 0.0000 -218849.8688 29426.5419 0.0000 0.0000 0.0000 -185802.6848 0.0000 -185802.6848 -185802.6848 0.0000 20400.1334 -2823.5025 534946.2959 20400.1334 -2823.5025
ENERGY: 5000 166.2083 665.9449 2784.1443 0.0000 -219515.4305 29659.2026 0.0000 0.0000 0.0000 -186239.9304 0.0000 -186239.9304 -186239.9304 0.0000 20518.7188 -2744.7702 534946.2959 20518.7188 -2744.7702
ENERGY: 6000 166.1344 665.9174 2781.0029 0.0000 -219945.1031 29834.6453 0.0000 0.0000 0.0000 -186497.4030 0.0000 -186497.4030 -186497.4030 0.0000 20611.4205 -2706.0950 534946.2959 20611.4205 -2706.0950
