Info: SIMULATION PARAMETERS:
Info: TIMESTEP               2
Info: NUMBER OF STEPS        0
Info: STEPS PER CYCLE        10
Info: PERIODIC CELL BASIS 1  72.449 0 0
Info: PERIODIC CELL BASIS 2  0 93.247 0
Info: PERIODIC CELL BASIS 3  0 0 79.185
Info: PERIODIC CELL CENTER   -0.248 -0.156 -0.047
Info: WRAPPING WATERS AROUND PERIODIC BOUNDARIES ON OUTPUT.
Info: WRAPPING ALL CLUSTERS AROUND PERIODIC BOUNDARIES ON OUTPUT.
Info: FIRST LDB TIMESTEP     50
Info: LAST LDB TIMESTEP     -1
Info: HOM BACKGROUND SCALING 1
Info: PME BACKGROUND SCALING 1
Info: MIN ATOMS PER PATCH    40
Info: INITIAL TEMPERATURE    0
Info: CENTER OF MASS MOVING INITIALLY? NO
Info: DIELECTRIC             1
Info: EXCLUDE                SCALED ONE-FOUR
Info: 1-4 ELECTROSTATICS SCALED BY 0.833333
Info: MODIFIED 1-4 VDW PARAMETERS WILL BE USED
Info: NO DCD TRAJECTORY OUTPUT
Info: NO EXTENDED SYSTEM TRAJECTORY OUTPUT
Info: NO VELOCITY DCD OUTPUT
Info: NO FORCE DCD OUTPUT
Info: OUTPUT FILENAME        ../replicas/rep30/equilibration/eq0
Info: NO RESTART FILE
Info: SWITCHING ACTIVE
Info: SWITCHING ON           10
Info: SWITCHING OFF          12
Info: PAIRLIST DISTANCE      13.5
Info: PAIRLIST SHRINK RATE   0.01
Info: PAIRLIST GROW RATE     0.01
Info: PAIRLIST TRIGGER       0.3
Info: PAIRLISTS PER CYCLE    2
Info: PAIRLISTS ENABLED
Info: MARGIN                 0
Info: HYDROGEN GROUP CUTOFF  2.5
Info: PATCH DIMENSION        16
Info: ENERGY OUTPUT STEPS    500
Info: CROSSTERM ENERGY INCLUDED IN DIHEDRAL
Info: TIMING OUTPUT STEPS    5000
Info: PRESSURE OUTPUT STEPS  500
Info: HARMONIC CONSTRAINTS ACTIVE
Info: HARMONIC CONS EXP      2
Info: HARMONIC CONS SCALING  10
Info: CONJUGATE GRADIENT MINIMIZATION ACTIVE
Info: LINE MINIMIZATION GOAL = 0.001
Info: BABY STEP SIZE = 0.01
Info: TINY STEP SIZE = 1e-06
Info: PARTICLE MESH EWALD (PME) ACTIVE
Info: PME TOLERANCE               1e-06
Info: PME EWALD COEFFICIENT       0.257952
Info: PME INTERPOLATION ORDER     4
Info: PME GRID DIMENSIONS         80 96 80
Info: PME MAXIMUM GRID SPACING    1
Info: FULL ELECTROSTATIC EVALUATION FREQUENCY      2
Info: USING VERLET I (r-RESPA) MTS SCHEME.
Info: C1 SPLITTING OF LONG RANGE ELECTROSTATICS
Info: PLACING ATOMS IN PATCHES BY HYDROGEN GROUPS
Info: RIGID BONDS TO HYDROGEN : ALL
Info:         ERROR TOLERANCE : 1e-05
Info:          MAX ITERATIONS : 100
Info: RIGID WATER USING SETTLE ALGORITHM
Info: RANDOM NUMBER SEED     1503701445
Info: USE HYDROGEN BONDS?    NO
Info: Using AMBER format force field!
Info: AMBER PARM FILE        ../build/complex.top
Info: COORDINATE PDB         ../build/complex.pdb
Info: Exclusions in PARM file will be ignored!
Info: SCNB (VDW SCALING)     2
Info: USING ARITHMETIC MEAN TO COMBINE L-J SIGMA PARAMETERS
Info: SUMMARY OF PARAMETERS:
Info: 71 BONDS
Info: 145 ANGLES
Info: 76 DIHEDRAL
Info: 0 IMPROPER
Info: 0 CROSSTERM
Info: 0 VDW
Info: 190 VDW_PAIRS
Info: 0 NBTHOLE_PAIRS
Info: STRUCTURE SUMMARY:
Info: 49394 ATOMS
Info: 49448 BONDS
Info: 8698 ANGLES
Info: 18780 DIHEDRALS
Info: 0 IMPROPERS
Info: 0 CROSSTERMS
Info: 0 EXCLUSIONS
Info: 2336 CONSTRAINTS
Info: 47058 RIGID BONDS
Info: 101124 DEGREES OF FREEDOM
Info: 17225 HYDROGEN GROUPS
Info: 4 ATOMS IN LARGEST HYDROGEN GROUP
Info: 17225 MIGRATION GROUPS
Info: 4 ATOMS IN LARGEST MIGRATION GROUP
Info: TOTAL MASS = 301478 amu
Info: TOTAL CHARGE = 1.00115e-05 e
Info: MASS DENSITY = 0.935846 g/cm^3
Info: ATOM DENSITY = 0.0923345 atoms/A^3
Info: ADDED 70656 IMPLICIT EXCLUSIONS
Info: NONBONDED TABLE R-SQUARED SPACING: 0.0625
Info: NONBONDED TABLE SIZE: 769 POINTS
Info: REMOVING COM VELOCITY 0 0 0
TCL: Minimizing for 100 steps
ETITLE: TS BOND ANGLE DIHED IMPRP ELECT VDW BOUNDARY MISC KINETIC TOTAL TEMP POTENTIAL TOTAL3 TEMPAVG PRESSURE GPRESSURE VOLUME PRESSAVG GPRESSAVG
ENERGY: 0 155.4176 1012.2698 2855.7272 0.0000 -154496.7910 207729.2052 0.0468 0.0000 0.0000 57255.8756 0.0000 57255.8756 57255.8756 0.0000 116350.2532 86546.1670 534946.2959 116350.2532 86546.1670
ENERGY: 20 304.7549 935.7911 2893.4663 0.0000 -158672.9405 17936.6595 143.9454 0.0000 0.0000 -136458.3233 0.0000 -136458.3233 -136458.3233 0.0000 16523.9388 -239.4557 534946.2959 16523.9388 -239.4557
ENERGY: 40 198.7414 799.5723 2896.9273 0.0000 -162811.4527 16417.9538 221.3029 0.0000 0.0000 -142276.9551 0.0000 -142276.9551 -142276.9551 0.0000 15011.2704 -2135.4696 534946.2959 15011.2704 -2135.4696
ENERGY: 60 130.5286 715.3441 2898.2165 0.0000 -167496.1521 15446.7547 315.2795 0.0000 0.0000 -147990.0287 0.0000 -147990.0287 -147990.0287 0.0000 13793.8849 -3799.3971 534946.2959 13793.8849 -3799.3971
ENERGY: 80 431.2753 765.6311 2904.3783 0.0000 -169937.5218 15121.1532 372.0121 0.0000 0.0000 -150343.0718 0.0000 -150343.0718 -150343.0718 0.0000 13270.3328 -4577.2423 534946.2959 13270.3328 -4577.2423
ENERGY: 100 129.7158 708.0657 2904.2779 0.0000 -171050.0653 15018.6532 384.1998 0.0000 0.0000 -151905.1528 0.0000 -151905.1528 -151905.1528 0.0000 13092.9129 -4843.6320 534946.2959 13092.9129 -4843.6320
TCL: Setting parameter constraintScaling to 5.0
TCL: Minimizing for 100 steps
ETITLE: TS BOND ANGLE DIHED IMPRP ELECT VDW BOUNDARY MISC KINETIC TOTAL TEMP POTENTIAL TOTAL3 TEMPAVG PRESSURE GPRESSURE VOLUME PRESSAVG GPRESSAVG
ENERGY: 100 129.7158 708.0657 2904.2779 0.0000 -171050.0653 15018.6532 192.0999 0.0000 0.0000 -152097.2528 0.0000 -152097.2528 -152097.2528 0.0000 13703.5080 -22944.4544 534946.2959 13703.5080 -22944.4544
ENERGY: 120 118.6826 680.2878 2909.9066 0.0000 -172396.3177 14830.1203 259.9550 0.0000 0.0000 -153597.3655 0.0000 -153597.3655 -153597.3655 0.0000 13320.9465 -4756.3084 534946.2959 13320.9465 -4756.3084
ENERGY: 140 109.1496 671.1472 2912.0863 0.0000 -174830.2792 14716.1438 337.7311 0.0000 0.0000 -156084.0211 0.0000 -156084.0211 -156084.0211 0.0000 12908.9557 -5423.1517 534946.2959 12908.9557 -5423.1517
ENERGY: 160 125.8549 667.1489 2914.1927 0.0000 -175967.0045 14735.1323 362.9178 0.0000 0.0000 -157161.7579 0.0000 -157161.7579 -157161.7579 0.0000 12806.9013 -5643.5039 534946.2959 12806.9013 -5643.5039
ENERGY: 180 303.5370 659.6759 2917.2963 0.0000 -177408.6029 14815.0067 395.3805 0.0000 0.0000 -158317.7067 0.0000 -158317.7067 -158317.7067 0.0000 12699.3202 -5900.5680 534946.2959 12699.3202 -5900.5680
ENERGY: 200 109.2141 628.4887 2923.3610 0.0000 -179544.5423 15071.2722 441.9017 0.0000 0.0000 -160370.3046 0.0000 -160370.3046 -160370.3046 0.0000 12659.9876 -6161.4916 534946.2959 12659.9876 -6161.4916
TCL: Setting parameter constraintScaling to 2.5
TCL: Minimizing for 100 steps
ETITLE: TS BOND ANGLE DIHED IMPRP ELECT VDW BOUNDARY MISC KINETIC TOTAL TEMP POTENTIAL TOTAL3 TEMPAVG PRESSURE GPRESSURE VOLUME PRESSAVG GPRESSAVG
ENERGY: 200 109.2141 628.4887 2923.3610 0.0000 -179544.5423 15071.2722 220.9508 0.0000 0.0000 -160591.2554 0.0000 -160591.2554 -160591.2554 0.0000 13208.4255 -25280.6988 534946.2959 13208.4255 -25280.6988
ENERGY: 220 275.5396 652.2746 2925.2697 0.0000 -180397.8490 15109.0799 288.1244 0.0000 0.0000 -161147.5608 0.0000 -161147.5608 -161147.5608 0.0000 12999.5692 -5921.5075 534946.2959 12999.5692 -5921.5075
ENERGY: 240 144.3484 628.9416 2922.0779 0.0000 -181649.3179 15308.6689 331.4120 0.0000 0.0000 -162313.8692 0.0000 -162313.8692 -162313.8692 0.0000 12969.0189 -6081.7476 534946.2959 12969.0189 -6081.7476
ENERGY: 260 298.6760 656.3764 2922.7798 0.0000 -183716.5869 15781.3776 415.4507 0.0000 0.0000 -163641.9265 0.0000 -163641.9265 -163641.9265 0.0000 12993.1938 -6286.9655 534946.2959 12993.1938 -6286.9655
ENERGY: 280 151.9178 675.6297 2920.6741 0.0000 -184645.2293 16050.6984 433.7381 0.0000 0.0000 -164412.5713 0.0000 -164412.5713 -164412.5713 0.0000 13102.3412 -6294.6789 534946.2959 13102.3412 -6294.6789
ENERGY: 300 180.9421 672.0937 2923.2167 0.0000 -185748.0691 16394.2479 428.5613 0.0000 0.0000 -165149.0074 0.0000 -165149.0074 -165149.0074 0.0000 13254.5921 -6246.2060 534946.2959 13254.5921 -6246.2060
TCL: Setting parameter constraintScaling to 1.25
TCL: Minimizing for 100 steps
ETITLE: TS BOND ANGLE DIHED IMPRP ELECT VDW BOUNDARY MISC KINETIC TOTAL TEMP POTENTIAL TOTAL3 TEMPAVG PRESSURE GPRESSURE VOLUME PRESSAVG GPRESSAVG
ENERGY: 300 180.9421 672.0937 2923.2167 0.0000 -185748.0691 16394.2479 214.2806 0.0000 0.0000 -165363.2880 0.0000 -165363.2880 -165363.2880 0.0000 13670.5723 -26251.4954 534946.2959 13670.5723 -26251.4954
ENERGY: 320 164.9501 663.9997 2915.2997 0.0000 -186231.2257 16490.6684 249.9226 0.0000 0.0000 -165746.3853 0.0000 -165746.3853 -165746.3853 0.0000 13645.5934 -5918.9509 534946.2959 13645.5934 -5918.9509
ENERGY: 340 197.5196 678.7706 2911.1870 0.0000 -187462.7648 16822.6171 332.2231 0.0000 0.0000 -166520.4474 0.0000 -166520.4474 -166520.4474 0.0000 13599.5143 -6092.5258 534946.2959 13599.5143 -6092.5258
ENERGY: 360 146.6608 662.8200 2904.6464 0.0000 -188278.3873 17088.5833 351.9038 0.0000 0.0000 -167123.7731 0.0000 -167123.7731 -167123.7731 0.0000 13741.2809 -6060.3851 534946.2959 13741.2809 -6060.3851
ENERGY: 380 169.0371 680.7092 2916.9612 0.0000 -189198.9728 17464.9526 325.5520 0.0000 0.0000 -167641.7607 0.0000 -167641.7607 -167641.7607 0.0000 13969.8305 -5913.1187 534946.2959 13969.8305 -5913.1187
ENERGY: 400 195.6318 688.7171 2928.5188 0.0000 -190902.7268 18176.0624 335.2298 0.0000 0.0000 -168578.5669 0.0000 -168578.5669 -168578.5669 0.0000 14389.7236 -5715.1916 534946.2959 14389.7236 -5715.1916
TCL: Setting parameter constraintScaling to 0.625
TCL: Minimizing for 100 steps
ETITLE: TS BOND ANGLE DIHED IMPRP ELECT VDW BOUNDARY MISC KINETIC TOTAL TEMP POTENTIAL TOTAL3 TEMPAVG PRESSURE GPRESSURE VOLUME PRESSAVG GPRESSAVG
ENERGY: 400 195.6318 688.7171 2928.5188 0.0000 -190902.7268 18176.0624 167.6149 0.0000 0.0000 -168746.1818 0.0000 -168746.1818 -168746.1818 0.0000 14674.6004 -26478.0163 534946.2959 14674.6004 -26478.0163
ENERGY: 420 170.0048 644.8364 2895.3984 0.0000 -191275.5715 18222.2353 202.9122 0.0000 0.0000 -169140.1844 0.0000 -169140.1844 -169140.1844 0.0000 14493.1431 -5625.3456 534946.2959 14493.1431 -5625.3456
ENERGY: 440 153.0290 667.4789 2893.0830 0.0000 -191978.9371 18406.5115 252.4288 0.0000 0.0000 -169606.4060 0.0000 -169606.4060 -169606.4060 0.0000 14487.4771 -5724.2287 534946.2959 14487.4771 -5724.2287
ENERGY: 460 158.3827 679.8664 2889.6801 0.0000 -193121.0773 18803.4526 296.4698 0.0000 0.0000 -170293.2257 0.0000 -170293.2257 -170293.2257 0.0000 14597.8118 -5729.2998 534946.2959 14597.8118 -5729.2998
ENERGY: 480 159.1308 665.4568 2885.2043 0.0000 -193414.3071 18930.8644 292.6834 0.0000 0.0000 -170480.9674 0.0000 -170480.9674 -170480.9674 0.0000 14679.9776 -5685.5398 534946.2959 14679.9776 -5685.5398
ENERGY: 500 160.7633 653.7302 2880.6979 0.0000 -193968.2436 19172.7186 288.3379 0.0000 0.0000 -170811.9957 0.0000 -170811.9957 -170811.9957 0.0000 14850.8587 -5580.7678 534946.2959 14850.8587 -5580.7678
TCL: Setting parameter constraintScaling to 0.3125
TCL: Minimizing for 100 steps
ETITLE: TS BOND ANGLE DIHED IMPRP ELECT VDW BOUNDARY MISC KINETIC TOTAL TEMP POTENTIAL TOTAL3 TEMPAVG PRESSURE GPRESSURE VOLUME PRESSAVG GPRESSAVG
ENERGY: 500 160.7633 653.7302 2880.6979 0.0000 -193968.2436 19172.7186 144.1689 0.0000 0.0000 -170956.1646 0.0000 -170956.1646 -170956.1646 0.0000 15039.5706 -26826.4464 534946.2959 15039.5706 -26826.4464
ENERGY: 520 185.4001 659.6228 2879.0325 0.0000 -194446.2147 19307.2670 162.5431 0.0000 0.0000 -171252.3493 0.0000 -171252.3493 -171252.3493 0.0000 15061.2387 -5434.7213 534946.2959 15061.2387 -5434.7213
ENERGY: 540 429.2414 723.1057 2874.2296 0.0000 -195490.6131 19699.2902 194.0487 0.0000 0.0000 -171570.6974 0.0000 -171570.6974 -171570.6974 0.0000 15122.8855 -5474.8732 534946.2959 15122.8855 -5474.8732
ENERGY: 560 158.9649 650.0624 2870.1321 0.0000 -195661.0778 19760.3971 196.6321 0.0000 0.0000 -172024.8892 0.0000 -172024.8892 -172024.8892 0.0000 15186.4735 -5423.9982 534946.2959 15186.4735 -5423.9982
ENERGY: 580 160.1384 699.7399 2875.1919 0.0000 -196324.3441 20026.5663 198.7502 0.0000 0.0000 -172363.9573 0.0000 -172363.9573 -172363.9573 0.0000 15367.4191 -5341.7339 534946.2959 15367.4191 -5341.7339
ENERGY: 600 197.8041 701.2692 2881.9466 0.0000 -197941.7948 20751.9694 217.3212 0.0000 0.0000 -173191.4843 0.0000 -173191.4843 -173191.4843 0.0000 15762.3185 -5121.5215 534946.2959 15762.3185 -5121.5215
TCL: Setting parameter constraintScaling to 0.15625
TCL: Minimizing for 100 steps
ETITLE: TS BOND ANGLE DIHED IMPRP ELECT VDW BOUNDARY MISC KINETIC TOTAL TEMP POTENTIAL TOTAL3 TEMPAVG PRESSURE GPRESSURE VOLUME PRESSAVG GPRESSAVG
ENERGY: 600 197.8041 701.2692 2881.9466 0.0000 -197941.7948 20751.9694 108.6606 0.0000 0.0000 -173300.1449 0.0000 -173300.1449 -173300.1449 0.0000 15885.6585 -26924.2442 534946.2959 15885.6585 -26924.2442
ENERGY: 620 150.4140 642.9633 2864.2304 0.0000 -198078.2476 20760.0477 115.3022 0.0000 0.0000 -173545.2901 0.0000 -173545.2901 -173545.2901 0.0000 15836.3689 -5065.9432 534946.2959 15836.3689 -5065.9432
ENERGY: 640 188.4920 699.0932 2860.4336 0.0000 -198700.7562 20956.8564 139.0672 0.0000 0.0000 -173856.8138 0.0000 -173856.8138 -173856.8138 0.0000 15801.9231 -5163.7456 534946.2959 15801.9231 -5163.7456
ENERGY: 660 187.4769 712.7554 2862.2313 0.0000 -199210.7434 21116.0547 149.2265 0.0000 0.0000 -174182.9986 0.0000 -174182.9986 -174182.9986 0.0000 15860.3677 -5164.9649 534946.2959 15860.3677 -5164.9649
ENERGY: 680 175.2304 677.2428 2853.0449 0.0000 -199449.7532 21197.5826 149.6211 0.0000 0.0000 -174397.0314 0.0000 -174397.0314 -174397.0314 0.0000 15927.6976 -5132.3775 534946.2959 15927.6976 -5132.3775
ENERGY: 700 180.2504 667.1227 2847.4991 0.0000 -199706.4146 21320.3707 144.6535 0.0000 0.0000 -174546.5183 0.0000 -174546.5183 -174546.5183 0.0000 16025.3850 -5049.7256 534946.2959 16025.3850 -5049.7256
TCL: Setting parameter constraintScaling to 0.078125
TCL: Minimizing for 100 steps
ETITLE: TS BOND ANGLE DIHED IMPRP ELECT VDW BOUNDARY MISC KINETIC TOTAL TEMP POTENTIAL TOTAL3 TEMPAVG PRESSURE GPRESSURE VOLUME PRESSAVG GPRESSAVG
ENERGY: 700 180.2504 667.1227 2847.4991 0.0000 -199706.4146 21320.3707 72.3268 0.0000 0.0000 -174618.8450 0.0000 -174618.8450 -174618.8450 0.0000 16096.9172 -27126.2233 534946.2959 16096.9172 -27126.2233
ENERGY: 720 158.2721 660.5691 2845.8735 0.0000 -199868.5142 21348.2494 74.2699 0.0000 0.0000 -174781.2803 0.0000 -174781.2803 -174781.2803 0.0000 16107.8963 -4996.1210 534946.2959 16107.8963 -4996.1210
ENERGY: 740 183.1275 670.0901 2844.3277 0.0000 -200402.2074 21546.8769 81.3327 0.0000 0.0000 -175076.4525 0.0000 -175076.4525 -175076.4525 0.0000 16190.2340 -4984.5588 534946.2959 16190.2340 -4984.5588
ENERGY: 760 251.8476 705.7987 2845.7739 0.0000 -200906.3071 21736.8290 85.6302 0.0000 0.0000 -175280.4277 0.0000 -175280.4277 -175280.4277 0.0000 16286.6804 -4961.2159 534946.2959 16286.6804 -4961.2159
ENERGY: 780 160.7526 659.8941 2836.8263 0.0000 -200991.5364 21762.1699 85.3038 0.0000 0.0000 -175486.5896 0.0000 -175486.5896 -175486.5896 0.0000 16304.0323 -4933.3712 534946.2959 16304.0323 -4933.3712
ENERGY: 800 178.4105 657.9582 2838.7073 0.0000 -201445.3058 21942.7894 88.7312 0.0000 0.0000 -175738.7092 0.0000 -175738.7092 -175738.7092 0.0000 16396.4690 -4898.5235 534946.2959 16396.4690 -4898.5235
TCL: Setting parameter constraintScaling to 0.0390625
TCL: Minimizing for 100 steps
ETITLE: TS BOND ANGLE DIHED IMPRP ELECT VDW BOUNDARY MISC KINETIC TOTAL TEMP POTENTIAL TOTAL3 TEMPAVG PRESSURE GPRESSURE VOLUME PRESSAVG GPRESSAVG
ENERGY: 800 178.4105 657.9582 2838.7073 0.0000 -201445.3058 21942.7894 44.3656 0.0000 0.0000 -175783.0748 0.0000 -175783.0748 -175783.0748 0.0000 16437.0112 -27200.3690 534946.2959 16437.0112 -27200.3690
ENERGY: 820 163.6558 649.8210 2832.0180 0.0000 -201594.4957 21994.4743 45.2595 0.0000 0.0000 -175909.2671 0.0000 -175909.2671 -175909.2671 0.0000 16455.7467 -4852.9467 534946.2959 16455.7467 -4852.9467
ENERGY: 840 170.9725 658.1819 2829.2748 0.0000 -202198.6009 22230.6123 49.4485 0.0000 0.0000 -176260.1108 0.0000 -176260.1108 -176260.1108 0.0000 16541.3562 -4835.3211 534946.2959 16541.3562 -4835.3211
ENERGY: 860 165.6922 653.7410 2825.4967 0.0000 -202554.1234 22376.0717 51.1176 0.0000 0.0000 -176482.0042 0.0000 -176482.0042 -176482.0042 0.0000 16616.5967 -4800.4801 534946.2959 16616.5967 -4800.4801
ENERGY: 880 162.8924 654.3178 2824.9628 0.0000 -202824.6730 22489.1357 51.2447 0.0000 0.0000 -176642.1196 0.0000 -176642.1196 -176642.1196 0.0000 16717.9752 -4740.6034 534946.2959 16717.9752 -4740.6034
ENERGY: 900 174.1068 664.1600 2825.2102 0.0000 -203069.1814 22589.5218 52.7988 0.0000 0.0000 -176763.3839 0.0000 -176763.3839 -176763.3839 0.0000 16754.9883 -4735.4377 534946.2959 16754.9883 -4735.4377
TCL: Setting parameter constraintScaling to 0.01953125
TCL: Minimizing for 100 steps
ETITLE: TS BOND ANGLE DIHED IMPRP ELECT VDW BOUNDARY MISC KINETIC TOTAL TEMP POTENTIAL TOTAL3 TEMPAVG PRESSURE GPRESSURE VOLUME PRESSAVG GPRESSAVG
ENERGY: 900 174.1068 664.1600 2825.2102 0.0000 -203069.1814 22589.5218 26.3994 0.0000 0.0000 -176789.7833 0.0000 -176789.7833 -176789.7833 0.0000 16777.6528 -27249.0768 534946.2959 16777.6528 -27249.0768
ENERGY: 920 186.7893 675.4009 2821.1937 0.0000 -203240.7806 22655.3852 26.9326 0.0000 0.0000 -176875.0790 0.0000 -176875.0790 -176875.0790 0.0000 16800.4979 -4708.5359 534946.2959 16800.4979 -4708.5359
ENERGY: 940 186.4967 658.6377 2821.0429 0.0000 -203579.4444 22798.8588 28.2314 0.0000 0.0000 -177086.1769 0.0000 -177086.1769 -177086.1769 0.0000 16836.1516 -4695.6640 534946.2959 16836.1516 -4695.6640
ENERGY: 960 189.2942 678.7942 2818.6899 0.0000 -203789.6380 22885.1941 28.5761 0.0000 0.0000 -177189.0895 0.0000 -177189.0895 -177189.0895 0.0000 16917.6294 -4650.6322 534946.2959 16917.6294 -4650.6322
ENERGY: 980 177.4304 683.5710 2820.9592 0.0000 -204376.9939 23148.1001 29.7459 0.0000 0.0000 -177517.1873 0.0000 -177517.1873 -177517.1873 0.0000 17094.5276 -4553.8152 534946.2959 17094.5276 -4553.8152
ENERGY: 1000 167.1954 651.6170 2816.2391 0.0000 -204829.7217 23359.5910 31.2424 0.0000 0.0000 -177803.8368 0.0000 -177803.8368 -177803.8368 0.0000 17159.2720 -4526.1261 534946.2959 17159.2720 -4526.1261
TCL: Setting parameter constraintScaling to 0
TCL: Minimizing for 5000 steps
ETITLE: TS BOND ANGLE DIHED IMPRP ELECT VDW BOUNDARY MISC KINETIC TOTAL TEMP POTENTIAL TOTAL3 TEMPAVG PRESSURE GPRESSURE VOLUME PRESSAVG GPRESSAVG
ENERGY: 1000 167.1954 651.6170 2816.2391 0.0000 -204829.7217 23359.5910 0.0000 0.0000 0.0000 -177835.0792 0.0000 -177835.0792 -177835.0792 0.0000 17184.7554 -27269.2079 534946.2959 17184.7554 -27269.2079
ENERGY: 2000 184.6645 666.2498 2802.2250 0.0000 -215015.5529 27916.7452 0.0000 0.0000 0.0000 -183445.6684 0.0000 -183445.6684 -183445.6684 0.0000 19590.4316 -3249.7241 534946.2959 19590.4316 -3249.7241
ENERGY: 3000 176.3404 670.3820 2796.3009 0.0000 -217640.9750 28941.2023 0.0000 0.0000 0.0000 -185056.7494 0.0000 -185056.7494 -185056.7494 0.0000 20144.5681 -2951.0942 534946.2959 20144.5681 -2951.0942
ENERGY: 4000 165.6915 664.3094 2788.4371 0.0000 -218891.4948 29475.9277 0.0000 0.0000 0.0000 -185797.1291 0.0000 -185797.1291 -185797.1291 0.0000 20430.2084 -2801.7476 534946.2959 20430.2084 -2801.7476
ENERGY: 5000 166.8195 665.9589 2790.7872 0.0000 -219401.4223 29625.5247 0.0000 0.0000 0.0000 -186152.3320 0.0000 -186152.3320 -186152.3320 0.0000 20497.6839 -2789.1418 534946.2959 20497.6839 -2789.1418
ENERGY: 6000 166.6564 666.2857 2787.5046 0.0000 -219871.4044 29818.8350 0.0000 0.0000 0.0000 -186432.1227 0.0000 -186432.1227 -186432.1227 0.0000 20598.2607 -2734.7542 534946.2959 20598.2607 -2734.7542
