Info: SIMULATION PARAMETERS:
Info: TIMESTEP               2
Info: NUMBER OF STEPS        0
Info: STEPS PER CYCLE        10
Info: PERIODIC CELL BASIS 1  72.449 0 0
Info: PERIODIC CELL BASIS 2  0 93.247 0
Info: PERIODIC CELL BASIS 3  0 0 79.185
Info: PERIODIC CELL CENTER   -0.248 -0.156 -0.047
Info: WRAPPING WATERS AROUND PERIODIC BOUNDARIES ON OUTPUT.
Info: WRAPPING ALL CLUSTERS AROUND PERIODIC BOUNDARIES ON OUTPUT.
Info: FIRST LDB TIMESTEP     50
Info: LAST LDB TIMESTEP     -1
Info: HOM BACKGROUND SCALING 1
Info: PME BACKGROUND SCALING 1
Info: MIN ATOMS PER PATCH    40
Info: INITIAL TEMPERATURE    0
Info: CENTER OF MASS MOVING INITIALLY? NO
Info: DIELECTRIC             1
Info: EXCLUDE                SCALED ONE-FOUR
Info: 1-4 ELECTROSTATICS SCALED BY 0.833333
Info: MODIFIED 1-4 VDW PARAMETERS WILL BE USED
Info: NO DCD TRAJECTORY OUTPUT
Info: NO EXTENDED SYSTEM TRAJECTORY OUTPUT
Info: NO VELOCITY DCD OUTPUT
Info: NO FORCE DCD OUTPUT
Info: OUTPUT FILENAME        ../replicas/rep120/equilibration/eq0
Info: NO RESTART FILE
Info: SWITCHING ACTIVE
Info: SWITCHING ON           10
Info: SWITCHING OFF          12
Info: PAIRLIST DISTANCE      13.5
Info: PAIRLIST SHRINK RATE   0.01
Info: PAIRLIST GROW RATE     0.01
Info: PAIRLIST TRIGGER       0.3
Info: PAIRLISTS PER CYCLE    2
Info: PAIRLISTS ENABLED
Info: MARGIN                 0
Info: HYDROGEN GROUP CUTOFF  2.5
Info: PATCH DIMENSION        16
Info: ENERGY OUTPUT STEPS    500
Info: CROSSTERM ENERGY INCLUDED IN DIHEDRAL
Info: TIMING OUTPUT STEPS    5000
Info: PRESSURE OUTPUT STEPS  500
Info: HARMONIC CONSTRAINTS ACTIVE
Info: HARMONIC CONS EXP      2
Info: HARMONIC CONS SCALING  10
Info: CONJUGATE GRADIENT MINIMIZATION ACTIVE
Info: LINE MINIMIZATION GOAL = 0.001
Info: BABY STEP SIZE = 0.01
Info: TINY STEP SIZE = 1e-06
Info: PARTICLE MESH EWALD (PME) ACTIVE
Info: PME TOLERANCE               1e-06
Info: PME EWALD COEFFICIENT       0.257952
Info: PME INTERPOLATION ORDER     4
Info: PME GRID DIMENSIONS         80 96 80
Info: PME MAXIMUM GRID SPACING    1
Info: FULL ELECTROSTATIC EVALUATION FREQUENCY      2
Info: USING VERLET I (r-RESPA) MTS SCHEME.
Info: C1 SPLITTING OF LONG RANGE ELECTROSTATICS
Info: PLACING ATOMS IN PATCHES BY HYDROGEN GROUPS
Info: RIGID BONDS TO HYDROGEN : ALL
Info:         ERROR TOLERANCE : 1e-05
Info:          MAX ITERATIONS : 100
Info: RIGID WATER USING SETTLE ALGORITHM
Info: RANDOM NUMBER SEED     1503693040
Info: USE HYDROGEN BONDS?    NO
Info: Using AMBER format force field!
Info: AMBER PARM FILE        ../build/complex.top
Info: COORDINATE PDB         ../build/complex.pdb
Info: Exclusions in PARM file will be ignored!
Info: SCNB (VDW SCALING)     2
Info: USING ARITHMETIC MEAN TO COMBINE L-J SIGMA PARAMETERS
Info: SUMMARY OF PARAMETERS:
Info: 71 BONDS
Info: 145 ANGLES
Info: 76 DIHEDRAL
Info: 0 IMPROPER
Info: 0 CROSSTERM
Info: 0 VDW
Info: 190 VDW_PAIRS
Info: 0 NBTHOLE_PAIRS
Info: STRUCTURE SUMMARY:
Info: 49394 ATOMS
Info: 49448 BONDS
Info: 8698 ANGLES
Info: 18780 DIHEDRALS
Info: 0 IMPROPERS
Info: 0 CROSSTERMS
Info: 0 EXCLUSIONS
Info: 2336 CONSTRAINTS
Info: 47058 RIGID BONDS
Info: 101124 DEGREES OF FREEDOM
Info: 17225 HYDROGEN GROUPS
Info: 4 ATOMS IN LARGEST HYDROGEN GROUP
Info: 17225 MIGRATION GROUPS
Info: 4 ATOMS IN LARGEST MIGRATION GROUP
Info: TOTAL MASS = 301478 amu
Info: TOTAL CHARGE = 1.00115e-05 e
Info: MASS DENSITY = 0.935846 g/cm^3
Info: ATOM DENSITY = 0.0923345 atoms/A^3
Info: ADDED 70656 IMPLICIT EXCLUSIONS
Info: NONBONDED TABLE R-SQUARED SPACING: 0.0625
Info: NONBONDED TABLE SIZE: 769 POINTS
Info: REMOVING COM VELOCITY 0 0 0
TCL: Minimizing for 100 steps
ETITLE: TS BOND ANGLE DIHED IMPRP ELECT VDW BOUNDARY MISC KINETIC TOTAL TEMP POTENTIAL TOTAL3 TEMPAVG PRESSURE GPRESSURE VOLUME PRESSAVG GPRESSAVG
ENERGY: 0 155.4176 1012.2698 2855.7272 0.0000 -154496.7910 207729.2052 0.0468 0.0000 0.0000 57255.8756 0.0000 57255.8756 57255.8756 0.0000 116350.2532 86546.1670 534946.2959 116350.2532 86546.1670
ENERGY: 20 304.7556 935.7912 2893.4663 0.0000 -158672.9410 17936.6592 143.9454 0.0000 0.0000 -136458.3232 0.0000 -136458.3232 -136458.3232 0.0000 16523.9385 -239.4561 534946.2959 16523.9385 -239.4561
ENERGY: 40 198.7456 799.5729 2896.9273 0.0000 -162811.4530 16417.9537 221.3030 0.0000 0.0000 -142276.9505 0.0000 -142276.9505 -142276.9505 0.0000 15011.2703 -2135.4698 534946.2959 15011.2703 -2135.4698
ENERGY: 60 130.5281 715.3440 2898.2166 0.0000 -167496.1579 15446.7538 315.2796 0.0000 0.0000 -147990.0358 0.0000 -147990.0358 -147990.0358 0.0000 13793.8835 -3799.3989 534946.2959 13793.8835 -3799.3989
ENERGY: 80 431.2721 765.6306 2904.3787 0.0000 -169937.5316 15121.1522 372.0123 0.0000 0.0000 -150343.0857 0.0000 -150343.0857 -150343.0857 0.0000 13270.3304 -4577.2453 534946.2959 13270.3304 -4577.2453
ENERGY: 100 129.7136 708.0649 2904.2781 0.0000 -171050.0669 15018.6534 384.2001 0.0000 0.0000 -151905.1568 0.0000 -151905.1568 -151905.1568 0.0000 13092.9127 -4843.6316 534946.2959 13092.9127 -4843.6316
TCL: Setting parameter constraintScaling to 5.0
TCL: Minimizing for 100 steps
ETITLE: TS BOND ANGLE DIHED IMPRP ELECT VDW BOUNDARY MISC KINETIC TOTAL TEMP POTENTIAL TOTAL3 TEMPAVG PRESSURE GPRESSURE VOLUME PRESSAVG GPRESSAVG
ENERGY: 100 129.7136 708.0649 2904.2781 0.0000 -171050.0668 15018.6534 192.1000 0.0000 0.0000 -152097.2568 0.0000 -152097.2568 -152097.2568 0.0000 13703.5079 -22944.4547 534946.2959 13703.5079 -22944.4547
ENERGY: 120 118.6819 680.2875 2909.9066 0.0000 -172396.3128 14830.1206 259.9549 0.0000 0.0000 -153597.3614 0.0000 -153597.3614 -153597.3614 0.0000 13320.9476 -4756.3069 534946.2959 13320.9476 -4756.3069
ENERGY: 140 109.1481 671.1468 2912.0863 0.0000 -174830.2588 14716.1439 337.7307 0.0000 0.0000 -156084.0029 0.0000 -156084.0029 -156084.0029 0.0000 12908.9594 -5423.1456 534946.2959 12908.9594 -5423.1456
ENERGY: 160 125.8521 667.1503 2914.1926 0.0000 -175967.0298 14735.1337 362.9184 0.0000 0.0000 -157161.7828 0.0000 -157161.7828 -157161.7828 0.0000 12806.8968 -5634.9479 534946.2959 12806.8968 -5634.9479
ENERGY: 180 303.4989 659.6799 2917.2966 0.0000 -177408.7120 14815.0149 395.3827 0.0000 0.0000 -158317.8391 0.0000 -158317.8391 -158317.8391 0.0000 12699.3149 -5892.0383 534946.2959 12699.3149 -5892.0383
ENERGY: 200 109.2097 628.4738 2923.3586 0.0000 -179543.9342 15071.1701 441.8842 0.0000 0.0000 -160369.8378 0.0000 -160369.8378 -160369.8378 0.0000 12659.9891 -6152.7098 534946.2959 12659.9891 -6152.7098
TCL: Setting parameter constraintScaling to 2.5
TCL: Minimizing for 100 steps
ETITLE: TS BOND ANGLE DIHED IMPRP ELECT VDW BOUNDARY MISC KINETIC TOTAL TEMP POTENTIAL TOTAL3 TEMPAVG PRESSURE GPRESSURE VOLUME PRESSAVG GPRESSAVG
ENERGY: 200 109.2097 628.4738 2923.3586 0.0000 -179543.9342 15071.1701 220.9421 0.0000 0.0000 -160590.7799 0.0000 -160590.7799 -160590.7799 0.0000 13208.4146 -25271.8603 534946.2959 13208.4146 -25271.8603
ENERGY: 220 169.2628 639.7845 2924.9617 0.0000 -180453.8741 15113.9398 291.3202 0.0000 0.0000 -161314.6051 0.0000 -161314.6051 -161314.6051 0.0000 13002.2823 -5915.5474 534946.2959 13002.2823 -5915.5474
ENERGY: 240 251.7883 643.1607 2921.4020 0.0000 -181893.8645 15358.8700 339.5341 0.0000 0.0000 -162379.1093 0.0000 -162379.1093 -162379.1093 0.0000 12964.0933 -6108.5072 534946.2959 12964.0933 -6108.5072
ENERGY: 260 174.2829 639.0209 2923.9320 0.0000 -184180.6160 15907.6576 437.5092 0.0000 0.0000 -164098.2133 0.0000 -164098.2133 -164098.2133 0.0000 13008.9933 -6307.3045 534946.2959 13008.9933 -6307.3045
ENERGY: 280 149.2199 648.9954 2918.1883 0.0000 -184715.6522 16069.7460 427.6236 0.0000 0.0000 -164501.8789 0.0000 -164501.8789 -164501.8789 0.0000 13128.4223 -6261.6735 534946.2959 13128.4223 -6261.6735
ENERGY: 300 233.7098 694.1039 2927.8075 0.0000 -186445.4791 16634.1762 426.2342 0.0000 0.0000 -165529.4474 0.0000 -165529.4474 -165529.4474 0.0000 13384.4682 -6202.1367 534946.2959 13384.4682 -6202.1367
TCL: Setting parameter constraintScaling to 1.25
TCL: Minimizing for 100 steps
ETITLE: TS BOND ANGLE DIHED IMPRP ELECT VDW BOUNDARY MISC KINETIC TOTAL TEMP POTENTIAL TOTAL3 TEMPAVG PRESSURE GPRESSURE VOLUME PRESSAVG GPRESSAVG
ENERGY: 300 233.7098 694.1039 2927.8075 0.0000 -186445.4791 16634.1762 213.1171 0.0000 0.0000 -165742.5645 0.0000 -165742.5645 -165742.5645 0.0000 13795.0881 -26289.5887 534946.2959 13795.0881 -26289.5887
ENERGY: 320 167.7953 649.8335 2910.7707 0.0000 -186884.9757 16724.0995 245.7249 0.0000 0.0000 -166186.7519 0.0000 -166186.7519 -166186.7519 0.0000 13783.6616 -5845.0673 534946.2959 13783.6616 -5845.0673
ENERGY: 340 219.6835 660.9933 2913.6788 0.0000 -188495.7700 17167.6209 354.1995 0.0000 0.0000 -167179.5940 0.0000 -167179.5940 -167179.5940 0.0000 13737.2282 -6062.4874 534946.2959 13737.2282 -6062.4874
ENERGY: 360 182.0813 669.9469 2903.6777 0.0000 -189034.1836 17381.9090 337.7006 0.0000 0.0000 -167558.8681 0.0000 -167558.8681 -167558.8681 0.0000 13913.4207 -5951.7415 534946.2959 13913.4207 -5951.7415
ENERGY: 380 197.5139 655.4337 2910.5495 0.0000 -190296.1374 17842.2246 352.4058 0.0000 0.0000 -168338.0100 0.0000 -168338.0100 -168338.0100 0.0000 14105.8148 -5905.7299 534946.2959 14105.8148 -5905.7299
ENERGY: 400 133.4170 649.2953 2896.1169 0.0000 -192660.4338 18892.4893 407.0320 0.0000 0.0000 -169682.0833 0.0000 -169682.0833 -169682.0833 0.0000 14588.9872 -5698.8612 534946.2959 14588.9872 -5698.8612
TCL: Setting parameter constraintScaling to 0.625
TCL: Minimizing for 100 steps
ETITLE: TS BOND ANGLE DIHED IMPRP ELECT VDW BOUNDARY MISC KINETIC TOTAL TEMP POTENTIAL TOTAL3 TEMPAVG PRESSURE GPRESSURE VOLUME PRESSAVG GPRESSAVG
ENERGY: 400 133.4170 649.2953 2896.1169 0.0000 -192660.4338 18892.4893 203.5160 0.0000 0.0000 -169885.5993 0.0000 -169885.5993 -169885.5993 0.0000 14893.6926 -26665.9661 534946.2959 14893.6926 -26665.9661
ENERGY: 420 144.2952 632.0131 2894.4799 0.0000 -192904.9716 18901.4759 223.8737 0.0000 0.0000 -170108.8339 0.0000 -170108.8339 -170108.8339 0.0000 14825.5907 -5467.1731 534946.2959 14825.5907 -5467.1731
ENERGY: 440 236.3682 684.6274 2893.1691 0.0000 -194095.2410 19235.5784 300.4436 0.0000 0.0000 -170745.0544 0.0000 -170745.0544 -170745.0544 0.0000 14786.3473 -5623.0614 534946.2959 14786.3473 -5623.0614
ENERGY: 460 174.7474 674.1490 2884.9665 0.0000 -194791.9457 19484.7988 322.9008 0.0000 0.0000 -171250.3832 0.0000 -171250.3832 -171250.3832 0.0000 14941.2990 -5569.8120 534946.2959 14941.2990 -5569.8120
ENERGY: 480 151.2380 657.0398 2885.4956 0.0000 -195265.6124 19672.0757 321.0777 0.0000 0.0000 -171578.6856 0.0000 -171578.6856 -171578.6856 0.0000 15025.5327 -5538.5327 534946.2959 15025.5327 -5538.5327
ENERGY: 500 179.5049 697.0720 2888.8220 0.0000 -196046.6474 20039.2190 311.3958 0.0000 0.0000 -171930.6337 0.0000 -171930.6337 -171930.6337 0.0000 15252.6234 -5405.9490 534946.2959 15252.6234 -5405.9490
TCL: Setting parameter constraintScaling to 0.3125
TCL: Minimizing for 100 steps
ETITLE: TS BOND ANGLE DIHED IMPRP ELECT VDW BOUNDARY MISC KINETIC TOTAL TEMP POTENTIAL TOTAL3 TEMPAVG PRESSURE GPRESSURE VOLUME PRESSAVG GPRESSAVG
ENERGY: 500 179.5049 697.0720 2888.8220 0.0000 -196046.6474 20039.2190 155.6979 0.0000 0.0000 -172086.3316 0.0000 -172086.3316 -172086.3316 0.0000 15447.7518 -26894.0450 534946.2959 15447.7518 -26894.0450
ENERGY: 520 161.2676 651.9564 2873.8572 0.0000 -196368.0140 20095.5671 175.3699 0.0000 0.0000 -172409.9957 0.0000 -172409.9957 -172409.9957 0.0000 15434.6149 -5255.4097 534946.2959 15434.6149 -5255.4097
ENERGY: 540 275.4792 729.9799 2876.9424 0.0000 -197509.5927 20496.7829 225.5170 0.0000 0.0000 -172904.8914 0.0000 -172904.8914 -172904.8914 0.0000 15477.2949 -5345.7692 534946.2959 15477.2949 -5345.7692
ENERGY: 560 169.5006 677.2168 2866.6094 0.0000 -197879.3662 20629.4275 231.9929 0.0000 0.0000 -173304.6191 0.0000 -173304.6191 -173304.6191 0.0000 15580.9586 -5293.5627 534946.2959 15580.9586 -5293.5627
ENERGY: 580 171.2436 656.9021 2876.8669 0.0000 -198393.8230 20886.9019 213.3550 0.0000 0.0000 -173588.5534 0.0000 -173588.5534 -173588.5534 0.0000 15807.9232 -5116.6457 534946.2959 15807.9232 -5116.6457
ENERGY: 600 155.1487 680.0128 2893.1392 0.0000 -199032.2835 21244.5163 206.9520 0.0000 0.0000 -173852.5146 0.0000 -173852.5146 -173852.5146 0.0000 16113.8483 -4902.1932 534946.2959 16113.8483 -4902.1932
TCL: Setting parameter constraintScaling to 0.15625
TCL: Minimizing for 100 steps
ETITLE: TS BOND ANGLE DIHED IMPRP ELECT VDW BOUNDARY MISC KINETIC TOTAL TEMP POTENTIAL TOTAL3 TEMPAVG PRESSURE GPRESSURE VOLUME PRESSAVG GPRESSAVG
ENERGY: 600 155.1487 680.0128 2893.1392 0.0000 -199032.2835 21244.5163 103.4760 0.0000 0.0000 -173955.9906 0.0000 -173955.9906 -173955.9906 0.0000 16231.8885 -26828.7731 534946.2959 16231.8885 -26828.7731
ENERGY: 620 150.5374 631.5194 2858.4186 0.0000 -199233.8935 21182.8917 115.4621 0.0000 0.0000 -174295.0644 0.0000 -174295.0644 -174295.0644 0.0000 16085.2723 -4945.7497 534946.2959 16085.2723 -4945.7497
ENERGY: 640 265.5663 677.1434 2851.7294 0.0000 -199758.6049 21331.2116 135.3200 0.0000 0.0000 -174497.6342 0.0000 -174497.6342 -174497.6342 0.0000 16026.2554 -5062.1230 534946.2959 16026.2554 -5062.1230
ENERGY: 660 372.8403 738.2052 2860.6270 0.0000 -200220.2904 21492.1250 140.1851 0.0000 0.0000 -174616.3078 0.0000 -174616.3078 -174616.3078 0.0000 16068.9219 -5082.5569 534946.2959 16068.9219 -5082.5569
ENERGY: 680 160.6466 652.7018 2850.8451 0.0000 -200566.7224 21653.9093 138.2076 0.0000 0.0000 -175110.4119 0.0000 -175110.4119 -175110.4119 0.0000 16283.2323 -4912.6005 534946.2959 16283.2323 -4912.6005
ENERGY: 700 171.2841 659.8155 2862.4058 0.0000 -201240.5535 21972.8090 145.2195 0.0000 0.0000 -175429.0195 0.0000 -175429.0195 -175429.0195 0.0000 16454.8996 -4800.5196 534946.2959 16454.8996 -4800.5196
TCL: Setting parameter constraintScaling to 0.078125
TCL: Minimizing for 100 steps
ETITLE: TS BOND ANGLE DIHED IMPRP ELECT VDW BOUNDARY MISC KINETIC TOTAL TEMP POTENTIAL TOTAL3 TEMPAVG PRESSURE GPRESSURE VOLUME PRESSAVG GPRESSAVG
ENERGY: 700 171.2841 659.8155 2862.4058 0.0000 -201240.5535 21972.8090 72.6097 0.0000 0.0000 -175501.6292 0.0000 -175501.6292 -175501.6292 0.0000 16526.2623 -27068.7221 534946.2959 16526.2623 -27068.7221
ENERGY: 720 198.8333 646.8145 2838.2926 0.0000 -201460.8969 21975.4465 77.8276 0.0000 0.0000 -175723.6824 0.0000 -175723.6824 -175723.6824 0.0000 16451.2528 -4838.8843 534946.2959 16451.2528 -4838.8843
ENERGY: 740 189.1018 676.0166 2840.0428 0.0000 -201805.8973 22095.4525 85.6660 0.0000 0.0000 -175919.6176 0.0000 -175919.6176 -175919.6176 0.0000 16446.3052 -4876.0111 534946.2959 16446.3052 -4876.0111
ENERGY: 760 167.7886 661.5012 2836.5335 0.0000 -201962.9974 22152.7057 87.4616 0.0000 0.0000 -176057.0069 0.0000 -176057.0069 -176057.0069 0.0000 16487.0621 -4862.8306 534946.2959 16487.0621 -4862.8306
ENERGY: 780 164.8568 661.3278 2834.2480 0.0000 -202205.2883 22254.2405 85.8456 0.0000 0.0000 -176204.7696 0.0000 -176204.7696 -176204.7696 0.0000 16576.8370 -4801.2556 534946.2959 16576.8370 -4801.2556
ENERGY: 800 178.5498 670.7049 2852.4462 0.0000 -203129.2548 22708.0910 92.3215 0.0000 0.0000 -176627.1414 0.0000 -176627.1414 -176627.1414 0.0000 16838.9107 -4636.8439 534946.2959 16838.9107 -4636.8439
TCL: Setting parameter constraintScaling to 0.0390625
TCL: Minimizing for 100 steps
ETITLE: TS BOND ANGLE DIHED IMPRP ELECT VDW BOUNDARY MISC KINETIC TOTAL TEMP POTENTIAL TOTAL3 TEMPAVG PRESSURE GPRESSURE VOLUME PRESSAVG GPRESSAVG
ENERGY: 800 178.5498 670.7049 2852.4462 0.0000 -203129.2548 22708.0910 46.1608 0.0000 0.0000 -176673.3022 0.0000 -176673.3022 -176673.3022 0.0000 16880.1403 -27165.1101 534946.2959 16880.1403 -27165.1101
ENERGY: 820 168.1754 648.4474 2825.9550 0.0000 -203305.7148 22718.3893 48.2359 0.0000 0.0000 -176896.5119 0.0000 -176896.5119 -176896.5119 0.0000 16846.5928 -4651.7341 534946.2959 16846.5928 -4651.7341
ENERGY: 840 174.5822 668.5997 2826.8681 0.0000 -203637.7180 22849.9162 52.3625 0.0000 0.0000 -177065.3893 0.0000 -177065.3893 -177065.3893 0.0000 16849.0811 -4688.3462 534946.2959 16849.0811 -4688.3462
ENERGY: 860 169.8927 665.7482 2825.1737 0.0000 -203747.9343 22889.0165 52.8323 0.0000 0.0000 -177145.2710 0.0000 -177145.2710 -177145.2710 0.0000 16883.0381 -4670.2745 534946.2959 16883.0381 -4670.2745
ENERGY: 880 233.1862 700.3083 2836.2640 0.0000 -204132.1815 23097.8452 52.1287 0.0000 0.0000 -177212.4491 0.0000 -177212.4491 -177212.4491 0.0000 17077.4297 -4551.7196 534946.2959 17077.4297 -4551.7196
ENERGY: 900 162.2382 664.5816 2837.6678 0.0000 -204363.0536 23211.4412 53.4169 0.0000 0.0000 -177433.7079 0.0000 -177433.7079 -177433.7079 0.0000 17124.8536 -4496.8057 534946.2959 17124.8536 -4496.8057
TCL: Setting parameter constraintScaling to 0.01953125
TCL: Minimizing for 100 steps
ETITLE: TS BOND ANGLE DIHED IMPRP ELECT VDW BOUNDARY MISC KINETIC TOTAL TEMP POTENTIAL TOTAL3 TEMPAVG PRESSURE GPRESSURE VOLUME PRESSAVG GPRESSAVG
ENERGY: 900 162.2382 664.5816 2837.6678 0.0000 -204363.0536 23211.4412 26.7085 0.0000 0.0000 -177460.4163 0.0000 -177460.4163 -177460.4163 0.0000 17147.5205 -27194.0142 534946.2959 17147.5205 -27194.0142
ENERGY: 920 160.9281 653.3768 2818.0667 0.0000 -204545.8595 23235.1491 27.8398 0.0000 0.0000 -177650.4990 0.0000 -177650.4990 -177650.4990 0.0000 17111.1312 -4531.7356 534946.2959 17111.1312 -4531.7356
ENERGY: 940 170.0226 664.5396 2818.3255 0.0000 -204769.0442 23330.5518 29.3399 0.0000 0.0000 -177756.2648 0.0000 -177756.2648 -177756.2648 0.0000 17134.7781 -4539.0884 534946.2959 17134.7781 -4539.0884
ENERGY: 960 168.6385 662.7043 2816.8972 0.0000 -204868.3323 23367.7567 29.5878 0.0000 0.0000 -177822.7479 0.0000 -177822.7479 -177822.7479 0.0000 17151.6446 -4534.6151 534946.2959 17151.6446 -4534.6151
ENERGY: 980 185.2430 674.2189 2823.7443 0.0000 -205244.7903 23565.0210 29.7437 0.0000 0.0000 -177966.8194 0.0000 -177966.8194 -177966.8194 0.0000 17338.1272 -4422.4488 534946.2959 17338.1272 -4422.4488
ENERGY: 1000 177.4218 653.6288 2814.8990 0.0000 -205431.1101 23618.5878 30.7361 0.0000 0.0000 -178135.8366 0.0000 -178135.8366 -178135.8366 0.0000 17296.1308 -4448.1338 534946.2959 17296.1308 -4448.1338
TCL: Setting parameter constraintScaling to 0
TCL: Minimizing for 5000 steps
ETITLE: TS BOND ANGLE DIHED IMPRP ELECT VDW BOUNDARY MISC KINETIC TOTAL TEMP POTENTIAL TOTAL3 TEMPAVG PRESSURE GPRESSURE VOLUME PRESSAVG GPRESSAVG
ENERGY: 1000 177.4218 653.6288 2814.8990 0.0000 -205431.1101 23618.5878 0.0000 0.0000 0.0000 -178166.5727 0.0000 -178166.5727 -178166.5727 0.0000 17320.9080 -27268.7998 534946.2959 17320.9080 -27268.7998
ENERGY: 2000 169.7112 661.9399 2799.8902 0.0000 -215063.3293 27914.7553 0.0000 0.0000 0.0000 -183517.0327 0.0000 -183517.0327 -183517.0327 0.0000 19599.2828 -3239.6463 534946.2959 19599.2828 -3239.6463
ENERGY: 3000 168.0154 666.2568 2799.7726 0.0000 -217633.3309 28965.3812 0.0000 0.0000 0.0000 -185033.9049 0.0000 -185033.9049 -185033.9049 0.0000 20171.5927 -2906.2021 534946.2959 20171.5927 -2906.2021
ENERGY: 4000 172.1932 664.3172 2793.3647 0.0000 -218914.6699 29478.7187 0.0000 0.0000 0.0000 -185806.0762 0.0000 -185806.0762 -185806.0762 0.0000 20430.2948 -2783.3881 534946.2959 20430.2948 -2783.3881
ENERGY: 5000 165.5045 664.5199 2794.3017 0.0000 -219643.9815 29730.9234 0.0000 0.0000 0.0000 -186288.7320 0.0000 -186288.7320 -186288.7320 0.0000 20559.1045 -2726.0518 534946.2959 20559.1045 -2726.0518
ENERGY: 6000 165.6120 664.8888 2788.6702 0.0000 -220086.1090 29937.9030 0.0000 0.0000 0.0000 -186529.0349 0.0000 -186529.0349 -186529.0349 0.0000 20671.4889 -2664.8581 534946.2959 20671.4889 -2664.8581
