Info: SIMULATION PARAMETERS:
Info: TIMESTEP               2
Info: NUMBER OF STEPS        0
Info: STEPS PER CYCLE        10
Info: PERIODIC CELL BASIS 1  72.449 0 0
Info: PERIODIC CELL BASIS 2  0 93.247 0
Info: PERIODIC CELL BASIS 3  0 0 79.185
Info: PERIODIC CELL CENTER   -0.248 -0.156 -0.047
Info: WRAPPING WATERS AROUND PERIODIC BOUNDARIES ON OUTPUT.
Info: WRAPPING ALL CLUSTERS AROUND PERIODIC BOUNDARIES ON OUTPUT.
Info: FIRST LDB TIMESTEP     50
Info: LAST LDB TIMESTEP     -1
Info: HOM BACKGROUND SCALING 1
Info: PME BACKGROUND SCALING 1
Info: MIN ATOMS PER PATCH    40
Info: INITIAL TEMPERATURE    0
Info: CENTER OF MASS MOVING INITIALLY? NO
Info: DIELECTRIC             1
Info: EXCLUDE                SCALED ONE-FOUR
Info: 1-4 ELECTROSTATICS SCALED BY 0.833333
Info: MODIFIED 1-4 VDW PARAMETERS WILL BE USED
Info: NO DCD TRAJECTORY OUTPUT
Info: NO EXTENDED SYSTEM TRAJECTORY OUTPUT
Info: NO VELOCITY DCD OUTPUT
Info: NO FORCE DCD OUTPUT
Info: OUTPUT FILENAME        ../replicas/rep17/equilibration/eq0
Info: NO RESTART FILE
Info: SWITCHING ACTIVE
Info: SWITCHING ON           10
Info: SWITCHING OFF          12
Info: PAIRLIST DISTANCE      13.5
Info: PAIRLIST SHRINK RATE   0.01
Info: PAIRLIST GROW RATE     0.01
Info: PAIRLIST TRIGGER       0.3
Info: PAIRLISTS PER CYCLE    2
Info: PAIRLISTS ENABLED
Info: MARGIN                 0
Info: HYDROGEN GROUP CUTOFF  2.5
Info: PATCH DIMENSION        16
Info: ENERGY OUTPUT STEPS    500
Info: CROSSTERM ENERGY INCLUDED IN DIHEDRAL
Info: TIMING OUTPUT STEPS    5000
Info: PRESSURE OUTPUT STEPS  500
Info: HARMONIC CONSTRAINTS ACTIVE
Info: HARMONIC CONS EXP      2
Info: HARMONIC CONS SCALING  10
Info: CONJUGATE GRADIENT MINIMIZATION ACTIVE
Info: LINE MINIMIZATION GOAL = 0.001
Info: BABY STEP SIZE = 0.01
Info: TINY STEP SIZE = 1e-06
Info: PARTICLE MESH EWALD (PME) ACTIVE
Info: PME TOLERANCE               1e-06
Info: PME EWALD COEFFICIENT       0.257952
Info: PME INTERPOLATION ORDER     4
Info: PME GRID DIMENSIONS         80 96 80
Info: PME MAXIMUM GRID SPACING    1
Info: FULL ELECTROSTATIC EVALUATION FREQUENCY      2
Info: USING VERLET I (r-RESPA) MTS SCHEME.
Info: C1 SPLITTING OF LONG RANGE ELECTROSTATICS
Info: PLACING ATOMS IN PATCHES BY HYDROGEN GROUPS
Info: RIGID BONDS TO HYDROGEN : ALL
Info:         ERROR TOLERANCE : 1e-05
Info:          MAX ITERATIONS : 100
Info: RIGID WATER USING SETTLE ALGORITHM
Info: RANDOM NUMBER SEED     1503693013
Info: USE HYDROGEN BONDS?    NO
Info: Using AMBER format force field!
Info: AMBER PARM FILE        ../build/complex.top
Info: COORDINATE PDB         ../build/complex.pdb
Info: Exclusions in PARM file will be ignored!
Info: SCNB (VDW SCALING)     2
Info: USING ARITHMETIC MEAN TO COMBINE L-J SIGMA PARAMETERS
Info: SUMMARY OF PARAMETERS:
Info: 71 BONDS
Info: 145 ANGLES
Info: 76 DIHEDRAL
Info: 0 IMPROPER
Info: 0 CROSSTERM
Info: 0 VDW
Info: 190 VDW_PAIRS
Info: 0 NBTHOLE_PAIRS
Info: STRUCTURE SUMMARY:
Info: 49394 ATOMS
Info: 49448 BONDS
Info: 8698 ANGLES
Info: 18780 DIHEDRALS
Info: 0 IMPROPERS
Info: 0 CROSSTERMS
Info: 0 EXCLUSIONS
Info: 2336 CONSTRAINTS
Info: 47058 RIGID BONDS
Info: 101124 DEGREES OF FREEDOM
Info: 17225 HYDROGEN GROUPS
Info: 4 ATOMS IN LARGEST HYDROGEN GROUP
Info: 17225 MIGRATION GROUPS
Info: 4 ATOMS IN LARGEST MIGRATION GROUP
Info: TOTAL MASS = 301478 amu
Info: TOTAL CHARGE = 1.00115e-05 e
Info: MASS DENSITY = 0.935846 g/cm^3
Info: ATOM DENSITY = 0.0923345 atoms/A^3
Info: ADDED 70656 IMPLICIT EXCLUSIONS
Info: NONBONDED TABLE R-SQUARED SPACING: 0.0625
Info: NONBONDED TABLE SIZE: 769 POINTS
Info: REMOVING COM VELOCITY 0 0 0
TCL: Minimizing for 100 steps
ETITLE: TS BOND ANGLE DIHED IMPRP ELECT VDW BOUNDARY MISC KINETIC TOTAL TEMP POTENTIAL TOTAL3 TEMPAVG PRESSURE GPRESSURE VOLUME PRESSAVG GPRESSAVG
ENERGY: 0 155.4176 1012.2698 2855.7272 0.0000 -154496.7913 207729.2052 0.0468 0.0000 0.0000 57255.8753 0.0000 57255.8753 57255.8753 0.0000 116350.2532 86546.1670 534946.2959 116350.2532 86546.1670
ENERGY: 20 304.7559 935.7912 2893.4663 0.0000 -158672.9414 17936.6591 143.9455 0.0000 0.0000 -136458.3234 0.0000 -136458.3234 -136458.3234 0.0000 16523.9383 -239.4562 534946.2959 16523.9383 -239.4562
ENERGY: 40 198.7458 799.5730 2896.9273 0.0000 -162811.4530 16417.9538 221.3030 0.0000 0.0000 -142276.9501 0.0000 -142276.9501 -142276.9501 0.0000 15011.2704 -2135.4697 534946.2959 15011.2704 -2135.4697
ENERGY: 60 130.5282 715.3440 2898.2166 0.0000 -167496.1574 15446.7539 315.2796 0.0000 0.0000 -147990.0352 0.0000 -147990.0352 -147990.0352 0.0000 13793.8836 -3799.3987 534946.2959 13793.8836 -3799.3987
ENERGY: 80 431.2715 765.6304 2904.3787 0.0000 -169937.5302 15121.1523 372.0123 0.0000 0.0000 -150343.0850 0.0000 -150343.0850 -150343.0850 0.0000 13270.3307 -4577.2447 534946.2959 13270.3307 -4577.2447
ENERGY: 100 129.7139 708.0650 2904.2781 0.0000 -171050.0686 15018.6531 384.2001 0.0000 0.0000 -151905.1585 0.0000 -151905.1585 -151905.1585 0.0000 13092.9123 -4843.6322 534946.2959 13092.9123 -4843.6322
TCL: Setting parameter constraintScaling to 5.0
TCL: Minimizing for 100 steps
ETITLE: TS BOND ANGLE DIHED IMPRP ELECT VDW BOUNDARY MISC KINETIC TOTAL TEMP POTENTIAL TOTAL3 TEMPAVG PRESSURE GPRESSURE VOLUME PRESSAVG GPRESSAVG
ENERGY: 100 129.7139 708.0650 2904.2781 0.0000 -171050.0686 15018.6531 192.1001 0.0000 0.0000 -152097.2586 0.0000 -152097.2586 -152097.2586 0.0000 13703.5076 -22944.4554 534946.2959 13703.5076 -22944.4554
ENERGY: 120 118.6817 680.2875 2909.9066 0.0000 -172396.3160 14830.1203 259.9550 0.0000 0.0000 -153597.3649 0.0000 -153597.3649 -153597.3649 0.0000 13320.9471 -4756.3077 534946.2959 13320.9471 -4756.3077
ENERGY: 140 109.1480 671.1466 2912.0864 0.0000 -174830.2797 14716.1437 337.7313 0.0000 0.0000 -156084.0237 0.0000 -156084.0237 -156084.0237 0.0000 12908.9567 -5423.1504 534946.2959 12908.9567 -5423.1504
ENERGY: 160 125.8539 667.1503 2914.1925 0.0000 -175966.9999 14735.1325 362.9177 0.0000 0.0000 -157161.7529 0.0000 -157161.7529 -157161.7529 0.0000 12806.8996 -5642.0419 534946.2959 12806.8996 -5642.0419
ENERGY: 180 303.5012 659.6781 2917.2965 0.0000 -177408.6909 14815.0131 395.3823 0.0000 0.0000 -158317.8197 0.0000 -158317.8197 -158317.8197 0.0000 12699.3164 -5899.0119 534946.2959 12699.3164 -5899.0119
ENERGY: 200 109.2091 628.4728 2923.3589 0.0000 -179543.9533 15071.1734 441.8850 0.0000 0.0000 -160369.8542 0.0000 -160369.8542 -160369.8542 0.0000 12659.9894 -6159.5838 534946.2959 12659.9894 -6159.5838
TCL: Setting parameter constraintScaling to 2.5
TCL: Minimizing for 100 steps
ETITLE: TS BOND ANGLE DIHED IMPRP ELECT VDW BOUNDARY MISC KINETIC TOTAL TEMP POTENTIAL TOTAL3 TEMPAVG PRESSURE GPRESSURE VOLUME PRESSAVG GPRESSAVG
ENERGY: 200 109.2091 628.4728 2923.3589 0.0000 -179543.9533 15071.1734 220.9425 0.0000 0.0000 -160590.7966 0.0000 -160590.7966 -160590.7966 0.0000 13208.4155 -25278.7356 534946.2959 13208.4155 -25278.7356
ENERGY: 220 169.2307 639.7905 2924.9632 0.0000 -180454.1218 15113.9573 291.3412 0.0000 0.0000 -161314.8390 0.0000 -161314.8390 -161314.8390 0.0000 13002.2318 -5922.4747 534946.2959 13002.2318 -5922.4747
ENERGY: 240 251.7970 643.1460 2921.3997 0.0000 -181893.9952 15358.9007 339.5350 0.0000 0.0000 -162379.2168 0.0000 -162379.2168 -162379.2168 0.0000 12964.1112 -6115.2222 534946.2959 12964.1112 -6115.2222
ENERGY: 260 174.2075 639.0158 2923.9321 0.0000 -184182.2685 15908.1817 437.5714 0.0000 0.0000 -164099.3600 0.0000 -164099.3600 -164099.3600 0.0000 13009.1387 -6314.2162 534946.2959 13009.1387 -6314.2162
ENERGY: 280 149.1272 648.9908 2918.1926 0.0000 -184716.7315 16070.0601 427.7017 0.0000 0.0000 -164502.6590 0.0000 -164502.6590 -164502.6590 0.0000 13128.4147 -6268.6503 534946.2959 13128.4147 -6268.6503
ENERGY: 300 232.3546 694.1936 2927.8416 0.0000 -186448.4235 16635.2557 426.2519 0.0000 0.0000 -165532.5261 0.0000 -165532.5261 -165532.5261 0.0000 13384.8598 -6208.7500 534946.2959 13384.8598 -6208.7500
TCL: Setting parameter constraintScaling to 1.25
TCL: Minimizing for 100 steps
ETITLE: TS BOND ANGLE DIHED IMPRP ELECT VDW BOUNDARY MISC KINETIC TOTAL TEMP POTENTIAL TOTAL3 TEMPAVG PRESSURE GPRESSURE VOLUME PRESSAVG GPRESSAVG
ENERGY: 300 232.3546 694.1936 2927.8416 0.0000 -186448.4235 16635.2557 213.1260 0.0000 0.0000 -165745.6521 0.0000 -165745.6521 -165745.6521 0.0000 13795.4805 -26296.5891 534946.2959 13795.4805 -26296.5891
ENERGY: 320 129.6201 640.4461 2908.9009 0.0000 -187036.3419 16762.0564 256.4947 0.0000 0.0000 -166338.8237 0.0000 -166338.8237 -166338.8237 0.0000 13771.3375 -5883.5888 534946.2959 13771.3375 -5883.5888
ENERGY: 340 148.8607 669.5984 2915.7529 0.0000 -188597.8234 17198.8764 364.8165 0.0000 0.0000 -167299.9186 0.0000 -167299.9186 -167299.9186 0.0000 13736.2058 -6076.0229 534946.2959 13736.2058 -6076.0229
ENERGY: 360 154.9254 660.3117 2903.3528 0.0000 -188889.5022 17318.4731 348.3466 0.0000 0.0000 -167504.0927 0.0000 -167504.0927 -167504.0927 0.0000 13846.8863 -6010.7500 534946.2959 13846.8863 -6010.7500
ENERGY: 380 152.7915 645.0157 2911.3541 0.0000 -190266.3337 17834.1753 349.1601 0.0000 0.0000 -168373.8370 0.0000 -168373.8370 -168373.8370 0.0000 14114.8473 -5898.9086 534946.2959 14114.8473 -5898.9086
ENERGY: 400 159.2645 663.6164 2901.4473 0.0000 -192331.7114 18725.8667 392.8899 0.0000 0.0000 -169488.6267 0.0000 -169488.6267 -169488.6267 0.0000 14517.9013 -5748.1390 534946.2959 14517.9013 -5748.1390
TCL: Setting parameter constraintScaling to 0.625
TCL: Minimizing for 100 steps
ETITLE: TS BOND ANGLE DIHED IMPRP ELECT VDW BOUNDARY MISC KINETIC TOTAL TEMP POTENTIAL TOTAL3 TEMPAVG PRESSURE GPRESSURE VOLUME PRESSAVG GPRESSAVG
ENERGY: 400 159.2645 663.6164 2901.4473 0.0000 -192331.7114 18725.8667 196.4450 0.0000 0.0000 -169685.0716 0.0000 -169685.0716 -169685.0716 0.0000 14818.5196 -26668.2985 534946.2959 14818.5196 -26668.2985
ENERGY: 420 187.9620 681.3432 2888.5083 0.0000 -192799.8556 18806.6423 231.1057 0.0000 0.0000 -170004.2941 0.0000 -170004.2941 -170004.2941 0.0000 14805.2462 -5531.3565 534946.2959 14805.2462 -5531.3565
ENERGY: 440 199.7675 696.0532 2892.2210 0.0000 -193376.6078 18961.6180 273.8685 0.0000 0.0000 -170353.0796 0.0000 -170353.0796 -170353.0796 0.0000 14714.2366 -5635.3473 534946.2959 14714.2366 -5635.3473
ENERGY: 460 156.9113 657.5235 2887.0538 0.0000 -193647.7971 19070.4599 271.4655 0.0000 0.0000 -170604.3831 0.0000 -170604.3831 -170604.3831 0.0000 14785.8918 -5592.0604 534946.2959 14785.8918 -5592.0604
ENERGY: 480 171.5499 664.7103 2885.3231 0.0000 -194368.8228 19370.0663 275.0451 0.0000 0.0000 -171002.1281 0.0000 -171002.1281 -171002.1281 0.0000 14986.7037 -5500.9550 534946.2959 14986.7037 -5500.9550
ENERGY: 500 235.2355 717.7744 2899.5274 0.0000 -196090.1663 20104.1818 316.1229 0.0000 0.0000 -171817.3243 0.0000 -171817.3243 -171817.3243 0.0000 15284.8870 -5372.9509 534946.2959 15284.8870 -5372.9509
TCL: Setting parameter constraintScaling to 0.3125
TCL: Minimizing for 100 steps
ETITLE: TS BOND ANGLE DIHED IMPRP ELECT VDW BOUNDARY MISC KINETIC TOTAL TEMP POTENTIAL TOTAL3 TEMPAVG PRESSURE GPRESSURE VOLUME PRESSAVG GPRESSAVG
ENERGY: 500 235.2355 717.7744 2899.5274 0.0000 -196090.1663 20104.1818 158.0615 0.0000 0.0000 -171975.3857 0.0000 -171975.3857 -171975.3857 0.0000 15484.3064 -26883.1765 534946.2959 15484.3064 -26883.1765
ENERGY: 520 144.5879 646.6232 2873.5724 0.0000 -196272.3505 20122.8451 168.0770 0.0000 0.0000 -172316.6448 0.0000 -172316.6448 -172316.6448 0.0000 15516.3030 -5183.0149 534946.2959 15516.3030 -5183.0149
ENERGY: 540 180.6739 696.9615 2877.8964 0.0000 -196768.0290 20253.1132 197.2548 0.0000 0.0000 -172562.1292 0.0000 -172562.1292 -172562.1292 0.0000 15437.2925 -5311.4451 534946.2959 15437.2925 -5311.4451
ENERGY: 560 160.5517 658.7965 2865.5301 0.0000 -197014.4078 20338.2060 194.3891 0.0000 0.0000 -172796.9344 0.0000 -172796.9344 -172796.9344 0.0000 15537.1688 -5242.7371 534946.2959 15537.1688 -5242.7371
ENERGY: 580 191.6689 670.4481 2881.8481 0.0000 -197738.2769 20615.2853 205.6232 0.0000 0.0000 -173173.4033 0.0000 -173173.4033 -173173.4033 0.0000 15653.4081 -5200.1582 534946.2959 15653.4081 -5200.1582
ENERGY: 600 161.9451 697.5222 2872.1113 0.0000 -199174.5447 21264.9009 237.6014 0.0000 0.0000 -173940.4638 0.0000 -173940.4638 -173940.4638 0.0000 15972.2994 -5049.4787 534946.2959 15972.2994 -5049.4787
TCL: Setting parameter constraintScaling to 0.15625
TCL: Minimizing for 100 steps
ETITLE: TS BOND ANGLE DIHED IMPRP ELECT VDW BOUNDARY MISC KINETIC TOTAL TEMP POTENTIAL TOTAL3 TEMPAVG PRESSURE GPRESSURE VOLUME PRESSAVG GPRESSAVG
ENERGY: 600 161.9451 697.5222 2872.1113 0.0000 -199174.5447 21264.9009 118.8007 0.0000 0.0000 -174059.2645 0.0000 -174059.2645 -174059.2645 0.0000 16099.1831 -26996.1139 534946.2959 16099.1831 -26996.1139
ENERGY: 620 152.0256 647.8237 2860.8242 0.0000 -199300.8393 21235.7778 123.4856 0.0000 0.0000 -174280.9024 0.0000 -174280.9024 -174280.9024 0.0000 16065.7029 -4971.1858 534946.2959 16065.7029 -4971.1858
ENERGY: 640 259.1905 677.9081 2851.5010 0.0000 -199642.4868 21326.7646 134.6942 0.0000 0.0000 -174392.4285 0.0000 -174392.4285 -174392.4285 0.0000 16026.0326 -5049.3778 534946.2959 16026.0326 -5049.3778
ENERGY: 660 203.4322 702.4088 2852.9947 0.0000 -200236.5570 21530.9354 148.3445 0.0000 0.0000 -174798.4413 0.0000 -174798.4413 -174798.4413 0.0000 16082.1648 -5066.8029 534946.2959 16082.1648 -5066.8029
ENERGY: 680 166.0489 664.2208 2845.0297 0.0000 -200312.4795 21544.9191 145.4597 0.0000 0.0000 -174946.8012 0.0000 -174946.8012 -174946.8012 0.0000 16139.5012 -5016.2712 534946.2959 16139.5012 -5016.2712
ENERGY: 700 163.7189 661.1367 2848.3666 0.0000 -200489.5026 21620.5466 143.7178 0.0000 0.0000 -175052.0160 0.0000 -175052.0160 -175052.0160 0.0000 16215.5881 -4968.6919 534946.2959 16215.5881 -4968.6919
TCL: Setting parameter constraintScaling to 0.078125
TCL: Minimizing for 100 steps
ETITLE: TS BOND ANGLE DIHED IMPRP ELECT VDW BOUNDARY MISC KINETIC TOTAL TEMP POTENTIAL TOTAL3 TEMPAVG PRESSURE GPRESSURE VOLUME PRESSAVG GPRESSAVG
ENERGY: 700 163.7189 661.1367 2848.3666 0.0000 -200489.5026 21620.5466 71.8589 0.0000 0.0000 -175123.8749 0.0000 -175123.8749 -175123.8749 0.0000 16285.8084 -27126.4527 534946.2959 16285.8084 -27126.4527
ENERGY: 720 157.2606 648.7001 2842.4378 0.0000 -200621.7315 21662.7576 74.0881 0.0000 0.0000 -175236.4873 0.0000 -175236.4873 -175236.4873 0.0000 16278.1676 -4912.6605 534946.2959 16278.1676 -4912.6605
ENERGY: 740 167.8139 661.9113 2837.6369 0.0000 -201232.2174 21884.9620 82.2175 0.0000 0.0000 -175597.6759 0.0000 -175597.6759 -175597.6759 0.0000 16367.1712 -4899.5398 534946.2959 16367.1712 -4899.5398
ENERGY: 760 176.7899 665.6248 2836.9852 0.0000 -201620.6077 22031.4857 85.3393 0.0000 0.0000 -175824.3828 0.0000 -175824.3828 -175824.3828 0.0000 16439.5614 -4871.6902 534946.2959 16439.5614 -4871.6902
ENERGY: 780 182.3468 674.7963 2835.6782 0.0000 -201868.2711 22126.3329 87.5275 0.0000 0.0000 -175961.5894 0.0000 -175961.5894 -175961.5894 0.0000 16498.6093 -4852.7726 534946.2959 16498.6093 -4852.7726
ENERGY: 800 176.2111 678.5597 2834.8367 0.0000 -202029.1753 22198.3748 88.9194 0.0000 0.0000 -176052.2737 0.0000 -176052.2737 -176052.2737 0.0000 16481.9938 -4869.5920 534946.2959 16481.9938 -4869.5920
TCL: Setting parameter constraintScaling to 0.0390625
TCL: Minimizing for 100 steps
ETITLE: TS BOND ANGLE DIHED IMPRP ELECT VDW BOUNDARY MISC KINETIC TOTAL TEMP POTENTIAL TOTAL3 TEMPAVG PRESSURE GPRESSURE VOLUME PRESSAVG GPRESSAVG
ENERGY: 800 176.2111 678.5597 2834.8367 0.0000 -202029.1753 22198.3748 44.4597 0.0000 0.0000 -176096.7334 0.0000 -176096.7334 -176096.7334 0.0000 16521.8050 -27257.8604 534946.2959 16521.8050 -27257.8604
ENERGY: 820 158.5940 654.9463 2832.0626 0.0000 -202103.8916 22214.3813 44.7762 0.0000 0.0000 -176199.1311 0.0000 -176199.1311 -176199.1311 0.0000 16591.3785 -4781.2779 534946.2959 16591.3785 -4781.2779
ENERGY: 840 176.7394 665.9498 2829.8110 0.0000 -202573.3933 22395.7212 47.4630 0.0000 0.0000 -176457.7089 0.0000 -176457.7089 -176457.7089 0.0000 16665.0291 -4755.7943 534946.2959 16665.0291 -4755.7943
ENERGY: 860 178.4844 663.4538 2825.6819 0.0000 -203017.5910 22580.2674 50.2048 0.0000 0.0000 -176719.4987 0.0000 -176719.4987 -176719.4987 0.0000 16747.2930 -4731.8483 534946.2959 16747.2930 -4731.8483
ENERGY: 880 190.0576 661.1260 2822.9874 0.0000 -203444.1238 22769.1559 52.6458 0.0000 0.0000 -176948.1512 0.0000 -176948.1512 -176948.1512 0.0000 16847.5768 -4680.4454 534946.2959 16847.5768 -4680.4454
ENERGY: 900 163.0883 658.3427 2822.9215 0.0000 -203520.0046 22797.7007 52.8182 0.0000 0.0000 -177025.1331 0.0000 -177025.1331 -177025.1331 0.0000 16868.1431 -4663.4265 534946.2959 16868.1431 -4663.4265
TCL: Setting parameter constraintScaling to 0.01953125
TCL: Minimizing for 100 steps
ETITLE: TS BOND ANGLE DIHED IMPRP ELECT VDW BOUNDARY MISC KINETIC TOTAL TEMP POTENTIAL TOTAL3 TEMPAVG PRESSURE GPRESSURE VOLUME PRESSAVG GPRESSAVG
ENERGY: 900 163.0883 658.3427 2822.9215 0.0000 -203520.0046 22797.7007 26.4091 0.0000 0.0000 -177051.5422 0.0000 -177051.5422 -177051.5422 0.0000 16890.4606 -27240.3549 534946.2959 16890.4606 -27240.3549
ENERGY: 920 171.1477 655.2951 2820.7541 0.0000 -203675.8875 22864.6982 26.9047 0.0000 0.0000 -177137.0878 0.0000 -177137.0878 -177137.0878 0.0000 16895.1964 -4652.6937 534946.2959 16895.1964 -4652.6937
ENERGY: 940 183.6775 659.3662 2817.6517 0.0000 -204137.2707 23056.3712 28.1443 0.0000 0.0000 -177392.0599 0.0000 -177392.0599 -177392.0599 0.0000 17022.4562 -4586.1380 534946.2959 17022.4562 -4586.1380
ENERGY: 960 195.3231 668.4208 2818.1755 0.0000 -204244.6432 23103.2620 28.5265 0.0000 0.0000 -177430.9352 0.0000 -177430.9352 -177430.9352 0.0000 17008.5841 -4599.1130 534946.2959 17008.5841 -4599.1130
ENERGY: 980 167.6550 660.7474 2815.4921 0.0000 -204392.2640 23166.9278 28.9717 0.0000 0.0000 -177552.4700 0.0000 -177552.4700 -177552.4700 0.0000 17066.4530 -4573.6864 534946.2959 17066.4530 -4573.6864
ENERGY: 1000 171.7966 651.9036 2815.4674 0.0000 -204682.9579 23288.2880 29.7396 0.0000 0.0000 -177725.7626 0.0000 -177725.7626 -177725.7626 0.0000 17136.2866 -4534.7946 534946.2959 17136.2866 -4534.7946
TCL: Setting parameter constraintScaling to 0
TCL: Minimizing for 5000 steps
ETITLE: TS BOND ANGLE DIHED IMPRP ELECT VDW BOUNDARY MISC KINETIC TOTAL TEMP POTENTIAL TOTAL3 TEMPAVG PRESSURE GPRESSURE VOLUME PRESSAVG GPRESSAVG
ENERGY: 1000 171.7966 651.9036 2815.4674 0.0000 -204682.9579 23288.2880 0.0000 0.0000 0.0000 -177755.5023 0.0000 -177755.5023 -177755.5023 0.0000 17160.5295 -27249.1440 534946.2959 17160.5295 -27249.1440
ENERGY: 2000 168.8137 665.4792 2804.9563 0.0000 -214534.9501 27730.2334 0.0000 0.0000 0.0000 -183165.4676 0.0000 -183165.4676 -183165.4676 0.0000 19519.0862 -3263.3196 534946.2959 19519.0862 -3263.3196
ENERGY: 3000 166.7414 665.7368 2799.0685 0.0000 -217546.6270 28923.3880 0.0000 0.0000 0.0000 -184991.6923 0.0000 -184991.6923 -184991.6923 0.0000 20137.7175 -2961.0993 534946.2959 20137.7175 -2961.0993
ENERGY: 4000 165.0081 660.0485 2792.6744 0.0000 -218845.1809 29467.1624 0.0000 0.0000 0.0000 -185760.2875 0.0000 -185760.2875 -185760.2875 0.0000 20428.3561 -2800.6921 534946.2959 20428.3561 -2800.6921
ENERGY: 5000 165.5129 662.5159 2790.9889 0.0000 -219433.4351 29655.7537 0.0000 0.0000 0.0000 -186158.6637 0.0000 -186158.6637 -186158.6637 0.0000 20516.7616 -2756.3240 534946.2959 20516.7616 -2756.3240
ENERGY: 6000 165.8738 663.9281 2785.4883 0.0000 -219764.7365 29777.2001 0.0000 0.0000 0.0000 -186372.2463 0.0000 -186372.2463 -186372.2463 0.0000 20579.3834 -2717.7793 534946.2959 20579.3834 -2717.7793
