Info: SIMULATION PARAMETERS:
Info: TIMESTEP               1
Info: NUMBER OF STEPS        0
Info: STEPS PER CYCLE        10
Info: PERIODIC CELL BASIS 1  72.449 0 0
Info: PERIODIC CELL BASIS 2  0 93.247 0
Info: PERIODIC CELL BASIS 3  0 0 79.185
Info: PERIODIC CELL CENTER   -0.248 -0.156 -0.047
Info: WRAPPING WATERS AROUND PERIODIC BOUNDARIES ON OUTPUT.
Info: WRAPPING ALL CLUSTERS AROUND PERIODIC BOUNDARIES ON OUTPUT.
Info: FIRST LDB TIMESTEP     50
Info: LAST LDB TIMESTEP     -1
Info: HOM BACKGROUND SCALING 1
Info: PME BACKGROUND SCALING 1
Info: MIN ATOMS PER PATCH    40
Info: VELOCITY FILE          ../replicas/rep9/equilibration/eq1.vel
Info: CENTER OF MASS MOVING INITIALLY? NO
Info: DIELECTRIC             1
Info: EXCLUDE                SCALED ONE-FOUR
Info: 1-4 ELECTROSTATICS SCALED BY 0.833333
Info: MODIFIED 1-4 VDW PARAMETERS WILL BE USED
Info: DCD FILENAME           ../replicas/rep9/equilibration/eq2.dcd
Info: DCD FREQUENCY          5000
Info: DCD FIRST STEP         5000
Info: DCD FILE WILL CONTAIN UNIT CELL DATA
Info: XST FILENAME           ../replicas/rep9/equilibration/eq2.xst
Info: XST FREQUENCY          5000
Info: NO VELOCITY DCD OUTPUT
Info: NO FORCE DCD OUTPUT
Info: OUTPUT FILENAME        ../replicas/rep9/equilibration/eq2
Info: RESTART FILENAME       ../replicas/rep9/equilibration/eq2.restart
Info: RESTART FREQUENCY      5000
Info: BINARY RESTART FILES WILL BE USED
Info: SWITCHING ACTIVE
Info: SWITCHING ON           10
Info: SWITCHING OFF          12
Info: PAIRLIST DISTANCE      13.5
Info: PAIRLIST SHRINK RATE   0.01
Info: PAIRLIST GROW RATE     0.01
Info: PAIRLIST TRIGGER       0.3
Info: PAIRLISTS PER CYCLE    2
Info: PAIRLISTS ENABLED
Info: MARGIN                 0.48
Info: HYDROGEN GROUP CUTOFF  2.5
Info: PATCH DIMENSION        16.48
Info: ENERGY OUTPUT STEPS    500
Info: CROSSTERM ENERGY INCLUDED IN DIHEDRAL
Info: TIMING OUTPUT STEPS    5000
Info: PRESSURE OUTPUT STEPS  500
Info: HARMONIC CONSTRAINTS ACTIVE
Info: HARMONIC CONS EXP      2
Info: HARMONIC CONS SCALING  10
Info: LANGEVIN DYNAMICS ACTIVE
Info: LANGEVIN TEMPERATURE   300
Info: LANGEVIN USING BBK INTEGRATOR
Info: LANGEVIN DAMPING COEFFICIENT IS 5 INVERSE PS
Info: LANGEVIN DYNAMICS NOT APPLIED TO HYDROGENS
Info: BERENDSEN PRESSURE COUPLING ACTIVE
Info:     TARGET PRESSURE IS 1 BAR
Info:     COMPRESSIBILITY ESTIMATE IS 4.57e-05 BAR^(-1)
Info:     RELAXATION TIME IS 100 FS
Info:     APPLIED EVERY 2 STEPS
Info:     PRESSURE CONTROL IS GROUP-BASED
Info:       CELL FLUCTUATION IS ISOTROPIC
Info: PARTICLE MESH EWALD (PME) ACTIVE
Info: PME TOLERANCE               1e-06
Info: PME EWALD COEFFICIENT       0.257952
Info: PME INTERPOLATION ORDER     4
Info: PME GRID DIMENSIONS         80 96 80
Info: PME MAXIMUM GRID SPACING    1
Info: FULL ELECTROSTATIC EVALUATION FREQUENCY      2
Info: USING VERLET I (r-RESPA) MTS SCHEME.
Info: C1 SPLITTING OF LONG RANGE ELECTROSTATICS
Info: PLACING ATOMS IN PATCHES BY HYDROGEN GROUPS
Info: RIGID BONDS TO HYDROGEN : WATER
Info:         ERROR TOLERANCE : 1e-05
Info:          MAX ITERATIONS : 100
Info: RIGID WATER USING SETTLE ALGORITHM
Info: RANDOM NUMBER SEED     1503270777
Info: USE HYDROGEN BONDS?    NO
Info: Using AMBER format force field!
Info: AMBER PARM FILE        ../build/complex.top
Info: COORDINATE PDB         ../replicas/rep9/equilibration/eq1.coor
Info: Exclusions in PARM file will be ignored!
Info: SCNB (VDW SCALING)     2
Info: USING ARITHMETIC MEAN TO COMBINE L-J SIGMA PARAMETERS
Info: SUMMARY OF PARAMETERS:
Info: 71 BONDS
Info: 145 ANGLES
Info: 76 DIHEDRAL
Info: 0 IMPROPER
Info: 0 CROSSTERM
Info: 0 VDW
Info: 190 VDW_PAIRS
Info: 0 NBTHOLE_PAIRS
Info: STRUCTURE SUMMARY:
Info: 49394 ATOMS
Info: 49448 BONDS
Info: 8698 ANGLES
Info: 18780 DIHEDRALS
Info: 0 IMPROPERS
Info: 0 CROSSTERMS
Info: 0 EXCLUSIONS
Info: 2336 CONSTRAINTS
Info: 44667 RIGID BONDS
Info: 103515 DEGREES OF FREEDOM
Info: 17225 HYDROGEN GROUPS
Info: 4 ATOMS IN LARGEST HYDROGEN GROUP
Info: 17225 MIGRATION GROUPS
Info: 4 ATOMS IN LARGEST MIGRATION GROUP
Info: TOTAL MASS = 301478 amu
Info: TOTAL CHARGE = 1.00115e-05 e
Info: MASS DENSITY = 0.935846 g/cm^3
Info: ATOM DENSITY = 0.0923345 atoms/A^3
Info: ADDED 70656 IMPLICIT EXCLUSIONS
Info: NONBONDED TABLE R-SQUARED SPACING: 0.0625
Info: NONBONDED TABLE SIZE: 769 POINTS
Info: REMOVING COM VELOCITY 0.00794123 -0.0122646 -0.0210446
TCL: Running for 5000 steps
ETITLE: TS BOND ANGLE DIHED IMPRP ELECT VDW BOUNDARY MISC KINETIC TOTAL TEMP POTENTIAL TOTAL3 TEMPAVG PRESSURE GPRESSURE VOLUME PRESSAVG GPRESSAVG
ENERGY: 0 391.4105 1224.5742 2921.4614 0.0000 -212511.4310 29330.1868 0.0000 0.0000 10075.0445 -168568.7535 97.9567 -178643.7980 -168559.1972 97.9567 -2482.7708 -2588.0384 534946.2959 -2482.7708 -2588.0384
ENERGY: 1000 1241.4787 1928.3947 3112.5635 0.0000 -193502.4830 26366.1316 716.7071 0.0000 24237.2443 -135899.9631 235.6516 -160137.2074 -135863.0383 218.5626 -56.4593 -5.8543 523339.2355 -0.1683 -0.3662
ENERGY: 2000 1464.1600 2137.1459 3093.6861 0.0000 -184044.0813 23326.6445 791.7751 0.0000 28046.6093 -125184.0604 272.6889 -153230.6697 -125137.1157 264.2726 -18.8322 -26.1037 515186.5865 -37.7436 -37.8381
ENERGY: 3000 1546.5115 2199.7497 3116.7216 0.0000 -179313.2832 21615.1852 835.3507 0.0000 29785.5541 -120214.2105 289.5961 -149999.7646 -120174.3655 285.1631 -36.6901 -3.8065 510379.5495 -11.7380 -11.9835
ENERGY: 4000 1617.6194 2196.9115 3136.5132 0.0000 -177051.8187 20745.8375 800.9446 0.0000 30260.3565 -118293.6360 294.2125 -148553.9925 -118253.0082 293.1315 22.7861 -4.6581 507000.9703 -11.1176 -11.4785
ENERGY: 5000 1614.3921 2245.4014 3129.6323 0.0000 -176126.7764 20588.8818 773.7231 0.0000 30939.6968 -116835.0490 300.8175 -147774.7457 -116791.0030 297.7615 -155.0210 -11.3530 504746.2372 -12.7817 -13.0459
TCL: Setting parameter constraintScaling to 5.0
TCL: Running for 5000 steps
ETITLE: TS BOND ANGLE DIHED IMPRP ELECT VDW BOUNDARY MISC KINETIC TOTAL TEMP POTENTIAL TOTAL3 TEMPAVG PRESSURE GPRESSURE VOLUME PRESSAVG GPRESSAVG
ENERGY: 5000 1614.3921 2245.4014 3129.6323 0.0000 -176126.7764 20588.8818 386.8615 0.0000 30937.6582 -117223.9491 300.7977 -148161.6073 -117181.9716 300.7977 -128.2322 15.5898 504746.2372 -128.2322 15.5898
ENERGY: 6000 1638.4592 2348.8910 3123.1040 0.0000 -175678.0992 20500.0568 682.3807 0.0000 30564.2720 -116820.9355 297.1674 -147385.2075 -116781.7714 299.1730 -71.0802 -23.7344 504411.8269 -2.2319 -2.8965
ENERGY: 7000 1639.8472 2289.4442 3130.9924 0.0000 -175605.9632 20141.7970 647.6237 0.0000 30859.0842 -116897.1746 300.0338 -147756.2588 -116853.7077 299.7642 -9.9353 -5.3830 502423.8627 -9.7937 -9.1240
ENERGY: 8000 1578.5522 2322.5838 3169.1435 0.0000 -176221.2296 20350.2284 641.0628 0.0000 30906.6843 -117252.9746 300.4966 -148159.6589 -117211.8605 299.4203 29.4534 2.1651 502100.2166 -11.0405 -11.0045
ENERGY: 9000 1551.0701 2280.8139 3166.8972 0.0000 -175582.5632 20119.2147 642.4976 0.0000 30953.8921 -116868.1776 300.9556 -147822.0697 -116823.1950 299.2614 -81.1142 -1.6306 502656.1325 0.9940 1.6797
ENERGY: 10000 1591.7570 2288.0011 3147.3239 0.0000 -175521.6945 20283.4802 645.0344 0.0000 30778.6269 -116787.4710 299.2515 -147566.0979 -116750.0202 300.1859 -72.9503 -3.2889 500857.4608 -0.3730 0.2289
TCL: Setting parameter constraintScaling to 2.5
TCL: Running for 5000 steps
ETITLE: TS BOND ANGLE DIHED IMPRP ELECT VDW BOUNDARY MISC KINETIC TOTAL TEMP POTENTIAL TOTAL3 TEMPAVG PRESSURE GPRESSURE VOLUME PRESSAVG GPRESSAVG
ENERGY: 10000 1591.7570 2288.0011 3147.3239 0.0000 -175521.6945 20283.4802 322.5172 0.0000 30776.5380 -117112.0770 299.2312 -147888.6151 -117067.2857 299.2312 -90.7242 -16.9758 500857.4608 -90.7242 -16.9758
ENERGY: 11000 1663.7141 2320.7704 3208.1500 0.0000 -175239.8912 19933.0829 498.5868 0.0000 30473.6199 -117141.9671 296.2860 -147615.5870 -117103.3721 299.1658 -64.5028 -34.2527 500848.9212 8.4236 8.5222
ENERGY: 12000 1630.4635 2313.6931 3155.2389 0.0000 -175480.6821 20162.5137 502.8305 0.0000 30749.0323 -116966.9102 298.9638 -147715.9425 -116923.9561 300.0149 74.7522 -2.8610 500940.5621 5.9873 5.9042
ENERGY: 13000 1618.0886 2392.4478 3188.8266 0.0000 -175384.3340 19927.8313 522.7237 0.0000 30816.7335 -116917.6825 299.6220 -147734.4160 -116871.9854 300.6184 -114.1519 9.8325 500735.7276 -6.4584 -6.2249
ENERGY: 14000 1651.2916 2364.9156 3178.4269 0.0000 -176083.7919 20481.2294 524.5783 0.0000 30784.7149 -117098.6353 299.3107 -147883.3502 -117056.1541 300.0101 -94.0491 -51.9312 499244.0112 -5.1676 -5.1957
ENERGY: 15000 1607.5564 2345.3561 3165.3743 0.0000 -175789.9336 20039.7116 508.9986 0.0000 30957.4784 -117165.4583 300.9904 -148122.9367 -117115.1612 299.2469 23.1966 29.6509 496978.7158 -3.7874 -4.1516
TCL: Setting parameter constraintScaling to 1.25
TCL: Running for 5000 steps
ETITLE: TS BOND ANGLE DIHED IMPRP ELECT VDW BOUNDARY MISC KINETIC TOTAL TEMP POTENTIAL TOTAL3 TEMPAVG PRESSURE GPRESSURE VOLUME PRESSAVG GPRESSAVG
ENERGY: 15000 1607.5564 2345.3561 3165.3743 0.0000 -175789.9336 20039.7116 254.4993 0.0000 30955.4123 -117422.0237 300.9703 -148377.4360 -117378.5666 300.9703 -34.7336 -37.3655 496978.7158 -34.7336 -37.3655
ENERGY: 16000 1634.9974 2346.4063 3175.3240 0.0000 -175985.0789 20275.0234 383.3934 0.0000 30466.1613 -117703.7730 296.2135 -148169.9344 -117664.2722 298.7747 -105.5797 -82.1916 498939.4202 5.6635 6.3283
ENERGY: 17000 1619.3191 2383.6873 3199.4299 0.0000 -176002.0068 20261.8395 397.9604 0.0000 30852.8853 -117286.8852 299.9735 -148139.7705 -117234.9370 298.8825 -149.0545 -26.7987 499063.8934 8.4810 9.1347
ENERGY: 18000 1629.5854 2350.8397 3194.9733 0.0000 -175717.6967 20063.8747 409.3243 0.0000 30961.3720 -117107.7274 301.0283 -148069.0994 -117066.9949 299.5473 -74.7409 -14.5371 498350.6995 -0.5488 -1.3272
ENERGY: 19000 1564.8985 2397.8612 3219.2298 0.0000 -175748.4335 20186.7625 398.5536 0.0000 30681.4129 -117299.7151 298.3063 -147981.1279 -117250.0739 299.6687 101.5796 55.1935 498672.6838 6.8542 6.3332
ENERGY: 20000 1628.1901 2347.6846 3213.6482 0.0000 -175438.3729 19725.2844 391.6214 0.0000 30962.0744 -117169.8698 301.0351 -148131.9442 -117123.9908 300.0757 -39.3555 -11.7910 498419.3085 4.7523 4.8378
TCL: Setting parameter constraintScaling to 0.625
TCL: Running for 5000 steps
ETITLE: TS BOND ANGLE DIHED IMPRP ELECT VDW BOUNDARY MISC KINETIC TOTAL TEMP POTENTIAL TOTAL3 TEMPAVG PRESSURE GPRESSURE VOLUME PRESSAVG GPRESSAVG
ENERGY: 20000 1628.1901 2347.6846 3213.6482 0.0000 -175438.3729 19725.2844 195.8107 0.0000 30960.0384 -117367.7165 301.0153 -148327.7549 -117322.9583 301.0153 -141.0939 -112.9598 498419.3085 -141.0939 -112.9598
ENERGY: 21000 1682.4915 2419.5909 3199.2570 0.0000 -176053.7422 20365.9134 290.0719 0.0000 30927.6927 -117168.7249 300.7008 -148096.4176 -117127.7896 299.8860 124.1316 71.2099 498510.4400 8.5617 8.2969
ENERGY: 22000 1615.7116 2346.7711 3166.0513 0.0000 -175851.2272 19875.8104 312.4345 0.0000 30983.8096 -117550.6389 301.2464 -148534.4484 -117502.8559 298.9539 -42.2574 -3.5661 497935.9570 -8.4050 -8.4832
ENERGY: 23000 1623.8511 2406.6019 3196.3824 0.0000 -175773.1280 20101.0170 306.4703 0.0000 30934.8164 -117203.9889 300.7701 -148138.8052 -117168.2237 299.2250 -62.3687 -13.1233 499278.8359 9.5150 10.3891
ENERGY: 24000 1717.1259 2399.3374 3202.1280 0.0000 -175256.8795 20007.7747 318.7681 0.0000 30731.4023 -116880.3430 298.7924 -147611.7454 -116825.4702 300.6624 -64.6931 21.9759 498912.9829 12.5282 11.5517
ENERGY: 25000 1654.4574 2372.0026 3220.6681 0.0000 -175884.7412 20177.5663 310.1642 0.0000 30798.7258 -117351.1568 299.4469 -148149.8826 -117314.8719 300.3071 29.1795 32.4338 498260.5664 -12.2766 -12.7984
TCL: Setting parameter constraintScaling to 0.3125
TCL: Running for 5000 steps
ETITLE: TS BOND ANGLE DIHED IMPRP ELECT VDW BOUNDARY MISC KINETIC TOTAL TEMP POTENTIAL TOTAL3 TEMPAVG PRESSURE GPRESSURE VOLUME PRESSAVG GPRESSAVG
ENERGY: 25000 1654.4574 2372.0026 3220.6681 0.0000 -175884.7412 20177.5663 155.0821 0.0000 30796.6509 -117508.3138 299.4267 -148304.9647 -117465.5504 299.4267 -17.2953 -4.9440 498260.5664 -17.2953 -4.9440
ENERGY: 26000 1591.6768 2471.3322 3183.3863 0.0000 -175484.8055 19882.2781 241.3640 0.0000 30893.6333 -117221.1348 300.3697 -148114.7681 -117168.8460 300.6803 39.6874 12.9046 498981.3472 3.9363 3.8840
ENERGY: 27000 1659.5423 2368.1266 3209.5809 0.0000 -175853.9274 20127.8936 256.9105 0.0000 30870.7769 -117361.0966 300.1474 -148231.8735 -117300.3835 299.6372 -12.7901 -43.5929 498547.1643 -5.4370 -5.1046
ENERGY: 28000 1640.8401 2372.1298 3233.1431 0.0000 -176006.6887 20201.1191 237.3854 0.0000 30706.3943 -117615.6769 298.5492 -148322.0712 -117575.8421 299.1577 -75.8892 -4.5828 498089.5924 -7.0502 -6.8367
ENERGY: 29000 1607.2725 2334.4001 3205.8987 0.0000 -175934.8671 20051.2455 251.0288 0.0000 30764.6501 -117720.3714 299.1156 -148485.0215 -117680.4994 298.1439 -31.8633 -32.1507 499060.3859 6.4471 6.2559
ENERGY: 30000 1583.1454 2340.6980 3186.8605 0.0000 -176270.8077 20460.7837 248.2276 0.0000 30752.8380 -117698.2545 299.0008 -148451.0924 -117645.5972 298.6916 116.3515 114.1791 498140.6801 -4.6886 -4.6160
TCL: Setting parameter constraintScaling to 0.15625
TCL: Running for 5000 steps
ETITLE: TS BOND ANGLE DIHED IMPRP ELECT VDW BOUNDARY MISC KINETIC TOTAL TEMP POTENTIAL TOTAL3 TEMPAVG PRESSURE GPRESSURE VOLUME PRESSAVG GPRESSAVG
ENERGY: 30000 1583.1454 2340.6980 3186.8605 0.0000 -176270.8077 20460.7837 124.1138 0.0000 30750.7846 -117824.4217 298.9808 -148575.2063 -117778.8836 298.9808 102.8511 107.7060 498140.6801 102.8511 107.7060
ENERGY: 31000 1645.3907 2365.1543 3235.0755 0.0000 -176423.4431 20287.8073 185.0693 0.0000 30709.9566 -117994.9893 298.5838 -148704.9459 -117945.8105 297.6130 -78.1610 -1.3621 497296.1623 -4.7363 -4.8460
ENERGY: 32000 1671.1098 2395.4782 3225.4466 0.0000 -175811.7516 19880.5010 182.0808 0.0000 30878.5251 -117578.6102 300.2228 -148457.1353 -117537.0222 298.2781 -173.7776 -73.1657 496418.1139 1.4933 1.6306
ENERGY: 33000 1646.8144 2421.9847 3240.4380 0.0000 -176220.9840 20195.5138 196.3341 0.0000 30700.3664 -117819.5326 298.4906 -148519.8989 -117785.5889 299.2290 -34.9216 -19.0615 497817.4861 11.8216 12.0510
ENERGY: 34000 1579.8009 2405.6269 3225.7568 0.0000 -175697.9309 20078.2034 208.0879 0.0000 30966.5148 -117233.9402 301.0783 -148200.4550 -117180.0297 300.5815 -58.7917 -15.4185 498661.4304 0.1135 0.3558
ENERGY: 35000 1606.7141 2346.6273 3224.4201 0.0000 -175700.9984 19926.6185 201.6191 0.0000 30668.6104 -117726.3890 298.1818 -148394.9994 -117676.4979 298.9730 -85.0374 -49.9811 498327.6374 0.5341 0.6433
TCL: Setting parameter constraintScaling to 0.078125
TCL: Running for 5000 steps
ETITLE: TS BOND ANGLE DIHED IMPRP ELECT VDW BOUNDARY MISC KINETIC TOTAL TEMP POTENTIAL TOTAL3 TEMPAVG PRESSURE GPRESSURE VOLUME PRESSAVG GPRESSAVG
ENERGY: 35000 1606.7141 2346.6273 3224.4201 0.0000 -175700.9984 19926.6185 100.8096 0.0000 30666.5596 -117829.2493 298.1619 -148495.8089 -117782.5812 298.1619 -129.4564 -88.8642 498327.6374 -129.4564 -88.8642
ENERGY: 36000 1610.2502 2323.0326 3245.6425 0.0000 -175818.6543 20105.6856 156.3385 0.0000 30915.6762 -117462.0286 300.5840 -148377.7049 -117418.1594 298.5773 -37.6741 -3.8739 497806.4909 7.0715 7.0167
ENERGY: 37000 1656.7586 2445.9858 3205.0055 0.0000 -176004.1608 20104.2925 155.7629 0.0000 30825.9818 -117610.3738 299.7119 -148436.3555 -117568.3501 299.4083 -26.0447 29.0870 497706.7573 4.7970 4.7787
ENERGY: 38000 1678.5754 2401.3707 3218.2701 0.0000 -176115.2220 20126.9020 156.3468 0.0000 30449.6720 -118084.0851 296.0532 -148533.7570 -118058.0430 299.0084 -154.4166 18.6110 496674.7203 -9.0493 -9.1988
ENERGY: 39000 1628.9376 2401.5760 3183.7348 0.0000 -176199.6054 20055.8246 174.6601 0.0000 30608.7372 -118146.1351 297.5997 -148754.8723 -118087.8564 297.3323 -56.9998 -23.3564 495802.7990 -12.6881 -12.5696
ENERGY: 40000 1643.3105 2341.7619 3205.7733 0.0000 -176269.4636 20255.7932 168.2703 0.0000 31027.4349 -117627.1194 301.6706 -148654.5543 -117585.7548 299.1190 68.0657 11.4336 495915.2638 -6.5182 -6.3541
TCL: Setting parameter constraintScaling to 0.0390625
TCL: Running for 5000 steps
ETITLE: TS BOND ANGLE DIHED IMPRP ELECT VDW BOUNDARY MISC KINETIC TOTAL TEMP POTENTIAL TOTAL3 TEMPAVG PRESSURE GPRESSURE VOLUME PRESSAVG GPRESSAVG
ENERGY: 40000 1643.3105 2341.7619 3205.7733 0.0000 -176269.4637 20255.7932 84.1352 0.0000 31025.3956 -117713.2939 301.6508 -148738.6895 -117670.3661 301.6508 52.3848 -3.1810 495915.2638 52.3848 -3.1810
ENERGY: 41000 1655.0325 2394.5110 3215.3334 0.0000 -175826.2039 19913.0695 106.0256 0.0000 30964.5775 -117577.6544 301.0594 -148542.2319 -117534.1008 299.7439 -185.5907 -168.9913 496917.3119 7.5971 6.6942
ENERGY: 42000 1685.7082 2402.8340 3238.2743 0.0000 -176062.9123 20163.5906 121.3764 0.0000 30844.6565 -117606.4723 299.8935 -148451.1287 -117573.0679 299.1483 -133.1082 -15.8345 497915.7804 12.7784 12.9164
ENERGY: 43000 1605.0744 2418.1340 3180.9723 0.0000 -175833.3270 20052.7416 121.5823 0.0000 30899.2505 -117555.5718 300.4243 -148454.8224 -117512.7107 299.8410 67.5198 67.9034 496693.7278 -0.9790 -0.6144
ENERGY: 44000 1635.2587 2364.7664 3182.2907 0.0000 -175621.8642 19980.4769 128.8129 0.0000 31049.6766 -117280.5820 301.8868 -148330.2587 -117238.9931 301.2202 -10.4318 54.8585 496766.4809 -5.5424 -5.3472
ENERGY: 45000 1658.5950 2425.9884 3183.8473 0.0000 -175747.8551 19804.7300 137.4123 0.0000 31079.7141 -117457.5680 302.1789 -148537.2821 -117410.3961 299.1770 -194.6418 -183.6749 496339.6890 -3.9059 -3.5926
TCL: Setting parameter constraintScaling to 0.01953125
TCL: Running for 5000 steps
ETITLE: TS BOND ANGLE DIHED IMPRP ELECT VDW BOUNDARY MISC KINETIC TOTAL TEMP POTENTIAL TOTAL3 TEMPAVG PRESSURE GPRESSURE VOLUME PRESSAVG GPRESSAVG
ENERGY: 45000 1658.5950 2425.9884 3183.8473 0.0000 -175747.8551 19804.7300 68.7062 0.0000 31077.6628 -117528.3254 302.1589 -148605.9883 -117487.0218 302.1589 -219.0349 -195.6519 496339.6890 -219.0349 -195.6519
ENERGY: 46000 1586.2548 2380.2679 3213.5474 0.0000 -175358.6770 19825.6787 82.2332 0.0000 30657.8959 -117612.7990 298.0777 -148270.6949 -117566.8892 299.4785 -49.5617 -31.1418 496497.2705 -2.4533 -2.7153
ENERGY: 47000 1641.4775 2383.8124 3191.6648 0.0000 -175645.0747 19890.7021 76.2599 0.0000 30744.0962 -117717.0616 298.9158 -148461.1579 -117676.3329 299.5930 -45.6568 35.8186 496600.5992 -2.2823 -2.6915
ENERGY: 48000 1637.3260 2359.4935 3212.8901 0.0000 -176000.0330 20115.8671 80.6480 0.0000 30457.8503 -118135.9580 296.1327 -148593.8083 -118100.2741 298.9822 8.4675 84.5768 495825.2768 -4.1438 -3.8151
ENERGY: 49000 1645.1113 2393.7068 3163.4720 0.0000 -175545.6385 19930.2802 86.3541 0.0000 30914.7754 -117411.9387 300.5752 -148326.7141 -117363.4139 300.8836 -57.6108 47.4155 496760.9653 -3.4533 -3.4568
ENERGY: 50000 1655.3404 2435.8349 3210.8901 0.0000 -175962.4349 19992.9411 88.0155 0.0000 30926.4040 -117653.0088 300.6883 -148579.4129 -117612.7904 300.3272 -172.7860 -63.4609 496360.2916 0.8994 1.2708
TCL: Setting parameter constraintScaling to 0
TCL: Running for 5000 steps
ETITLE: TS BOND ANGLE DIHED IMPRP ELECT VDW BOUNDARY MISC KINETIC TOTAL TEMP POTENTIAL TOTAL3 TEMPAVG PRESSURE GPRESSURE VOLUME PRESSAVG GPRESSAVG
ENERGY: 50000 1655.3404 2435.8349 3210.8901 0.0000 -175962.4349 19992.9411 0.0000 0.0000 30924.3605 -117743.0678 300.6684 -148667.4283 -117701.8066 300.6684 -181.4730 -84.8343 496360.2916 -181.4730 -84.8343
ENERGY: 51000 1625.6128 2434.2577 3190.8229 0.0000 -175966.8487 20063.4155 0.0000 0.0000 30921.3433 -117731.3964 300.6391 -148652.7398 -117682.5179 299.1350 -98.9039 -68.3912 495877.6422 0.4000 0.8831
ENERGY: 52000 1620.7150 2423.0540 3207.1933 0.0000 -175997.3333 20126.2552 0.0000 0.0000 30809.8590 -117810.2567 299.5552 -148620.1157 -117763.0845 298.8152 18.7163 -19.8827 497832.8289 7.2155 7.3416
ENERGY: 53000 1638.9016 2425.8381 3191.1261 0.0000 -176047.3228 20047.1254 0.0000 0.0000 30644.6371 -118099.6946 297.9488 -148744.3317 -118065.0339 299.2746 -67.0734 48.9713 495959.7664 -15.2891 -14.7416
ENERGY: 54000 1640.2369 2392.7633 3241.7097 0.0000 -175704.5974 20004.2461 0.0000 0.0000 30706.4801 -117719.1613 298.5500 -148425.6415 -117673.8299 299.6736 51.2249 77.5758 496911.4964 6.9087 6.7813
ENERGY: 55000 1642.9718 2410.9231 3233.0108 0.0000 -175897.0839 20129.5338 0.0000 0.0000 30939.6011 -117541.0433 300.8166 -148480.6444 -117492.9457 300.1313 -36.0934 36.7519 497189.6294 5.2459 5.9293
