Info: SIMULATION PARAMETERS:
Info: TIMESTEP               2
Info: NUMBER OF STEPS        0
Info: STEPS PER CYCLE        10
Info: PERIODIC CELL BASIS 1  72.449 0 0
Info: PERIODIC CELL BASIS 2  0 93.247 0
Info: PERIODIC CELL BASIS 3  0 0 79.185
Info: PERIODIC CELL CENTER   -0.248 -0.156 -0.047
Info: WRAPPING WATERS AROUND PERIODIC BOUNDARIES ON OUTPUT.
Info: WRAPPING ALL CLUSTERS AROUND PERIODIC BOUNDARIES ON OUTPUT.
Info: FIRST LDB TIMESTEP     50
Info: LAST LDB TIMESTEP     -1
Info: HOM BACKGROUND SCALING 1
Info: PME BACKGROUND SCALING 1
Info: MIN ATOMS PER PATCH    40
Info: INITIAL TEMPERATURE    0
Info: CENTER OF MASS MOVING INITIALLY? NO
Info: DIELECTRIC             1
Info: EXCLUDE                SCALED ONE-FOUR
Info: 1-4 ELECTROSTATICS SCALED BY 0.833333
Info: MODIFIED 1-4 VDW PARAMETERS WILL BE USED
Info: NO DCD TRAJECTORY OUTPUT
Info: NO EXTENDED SYSTEM TRAJECTORY OUTPUT
Info: NO VELOCITY DCD OUTPUT
Info: NO FORCE DCD OUTPUT
Info: OUTPUT FILENAME        ../replicas/rep58/equilibration/eq0
Info: NO RESTART FILE
Info: SWITCHING ACTIVE
Info: SWITCHING ON           10
Info: SWITCHING OFF          12
Info: PAIRLIST DISTANCE      13.5
Info: PAIRLIST SHRINK RATE   0.01
Info: PAIRLIST GROW RATE     0.01
Info: PAIRLIST TRIGGER       0.3
Info: PAIRLISTS PER CYCLE    2
Info: PAIRLISTS ENABLED
Info: MARGIN                 0
Info: HYDROGEN GROUP CUTOFF  2.5
Info: PATCH DIMENSION        16
Info: ENERGY OUTPUT STEPS    500
Info: CROSSTERM ENERGY INCLUDED IN DIHEDRAL
Info: TIMING OUTPUT STEPS    5000
Info: PRESSURE OUTPUT STEPS  500
Info: HARMONIC CONSTRAINTS ACTIVE
Info: HARMONIC CONS EXP      2
Info: HARMONIC CONS SCALING  10
Info: CONJUGATE GRADIENT MINIMIZATION ACTIVE
Info: LINE MINIMIZATION GOAL = 0.001
Info: BABY STEP SIZE = 0.01
Info: TINY STEP SIZE = 1e-06
Info: PARTICLE MESH EWALD (PME) ACTIVE
Info: PME TOLERANCE               1e-06
Info: PME EWALD COEFFICIENT       0.257952
Info: PME INTERPOLATION ORDER     4
Info: PME GRID DIMENSIONS         80 96 80
Info: PME MAXIMUM GRID SPACING    1
Info: FULL ELECTROSTATIC EVALUATION FREQUENCY      2
Info: USING VERLET I (r-RESPA) MTS SCHEME.
Info: C1 SPLITTING OF LONG RANGE ELECTROSTATICS
Info: PLACING ATOMS IN PATCHES BY HYDROGEN GROUPS
Info: RIGID BONDS TO HYDROGEN : ALL
Info:         ERROR TOLERANCE : 1e-05
Info:          MAX ITERATIONS : 100
Info: RIGID WATER USING SETTLE ALGORITHM
Info: RANDOM NUMBER SEED     1503690979
Info: USE HYDROGEN BONDS?    NO
Info: Using AMBER format force field!
Info: AMBER PARM FILE        ../build/complex.top
Info: COORDINATE PDB         ../build/complex.pdb
Info: Exclusions in PARM file will be ignored!
Info: SCNB (VDW SCALING)     2
Info: USING ARITHMETIC MEAN TO COMBINE L-J SIGMA PARAMETERS
Info: SUMMARY OF PARAMETERS:
Info: 71 BONDS
Info: 145 ANGLES
Info: 76 DIHEDRAL
Info: 0 IMPROPER
Info: 0 CROSSTERM
Info: 0 VDW
Info: 190 VDW_PAIRS
Info: 0 NBTHOLE_PAIRS
Info: STRUCTURE SUMMARY:
Info: 49394 ATOMS
Info: 49448 BONDS
Info: 8698 ANGLES
Info: 18780 DIHEDRALS
Info: 0 IMPROPERS
Info: 0 CROSSTERMS
Info: 0 EXCLUSIONS
Info: 2336 CONSTRAINTS
Info: 47058 RIGID BONDS
Info: 101124 DEGREES OF FREEDOM
Info: 17225 HYDROGEN GROUPS
Info: 4 ATOMS IN LARGEST HYDROGEN GROUP
Info: 17225 MIGRATION GROUPS
Info: 4 ATOMS IN LARGEST MIGRATION GROUP
Info: TOTAL MASS = 301478 amu
Info: TOTAL CHARGE = 1.00115e-05 e
Info: MASS DENSITY = 0.935846 g/cm^3
Info: ATOM DENSITY = 0.0923345 atoms/A^3
Info: ADDED 70656 IMPLICIT EXCLUSIONS
Info: NONBONDED TABLE R-SQUARED SPACING: 0.0625
Info: NONBONDED TABLE SIZE: 769 POINTS
Info: REMOVING COM VELOCITY 0 0 0
TCL: Minimizing for 100 steps
ETITLE: TS BOND ANGLE DIHED IMPRP ELECT VDW BOUNDARY MISC KINETIC TOTAL TEMP POTENTIAL TOTAL3 TEMPAVG PRESSURE GPRESSURE VOLUME PRESSAVG GPRESSAVG
ENERGY: 0 155.4176 1012.2698 2855.7272 0.0000 -154496.7912 207729.2052 0.0468 0.0000 0.0000 57255.8754 0.0000 57255.8754 57255.8754 0.0000 116350.2532 86546.1670 534946.2959 116350.2532 86546.1670
ENERGY: 20 304.7557 935.7912 2893.4663 0.0000 -158672.9410 17936.6591 143.9455 0.0000 0.0000 -136458.3232 0.0000 -136458.3232 -136458.3232 0.0000 16523.9384 -239.4562 534946.2959 16523.9384 -239.4562
ENERGY: 40 198.7455 799.5729 2896.9273 0.0000 -162811.4526 16417.9539 221.3030 0.0000 0.0000 -142276.9501 0.0000 -142276.9501 -142276.9501 0.0000 15011.2705 -2135.4696 534946.2959 15011.2705 -2135.4696
ENERGY: 60 130.5281 715.3440 2898.2166 0.0000 -167496.1573 15446.7538 315.2796 0.0000 0.0000 -147990.0351 0.0000 -147990.0351 -147990.0351 0.0000 13793.8836 -3799.3988 534946.2959 13793.8836 -3799.3988
ENERGY: 80 431.2721 765.6304 2904.3787 0.0000 -169937.5356 15121.1517 372.0124 0.0000 0.0000 -150343.0903 0.0000 -150343.0903 -150343.0903 0.0000 13270.3291 -4577.2470 534946.2959 13270.3291 -4577.2470
ENERGY: 100 129.7130 708.0646 2904.2781 0.0000 -171050.0675 15018.6535 384.2001 0.0000 0.0000 -151905.1583 0.0000 -151905.1583 -151905.1583 0.0000 13092.9126 -4843.6315 534946.2959 13092.9126 -4843.6315
TCL: Setting parameter constraintScaling to 5.0
TCL: Minimizing for 100 steps
ETITLE: TS BOND ANGLE DIHED IMPRP ELECT VDW BOUNDARY MISC KINETIC TOTAL TEMP POTENTIAL TOTAL3 TEMPAVG PRESSURE GPRESSURE VOLUME PRESSAVG GPRESSAVG
ENERGY: 100 129.7130 708.0646 2904.2781 0.0000 -171050.0675 15018.6535 192.1001 0.0000 0.0000 -152097.2583 0.0000 -152097.2583 -152097.2583 0.0000 13703.5078 -22944.4550 534946.2959 13703.5078 -22944.4550
ENERGY: 120 118.6815 680.2875 2909.9066 0.0000 -172396.3120 14830.1206 259.9548 0.0000 0.0000 -153597.3610 0.0000 -153597.3610 -153597.3610 0.0000 13320.9478 -4756.3067 534946.2959 13320.9478 -4756.3067
ENERGY: 140 109.1478 671.1468 2912.0863 0.0000 -174830.2499 14716.1440 337.7304 0.0000 0.0000 -156083.9947 0.0000 -156083.9947 -156083.9947 0.0000 12908.9609 -5423.1431 534946.2959 12908.9609 -5423.1431
ENERGY: 160 125.8511 667.1505 2914.1925 0.0000 -175967.0362 14735.1340 362.9185 0.0000 0.0000 -157161.7896 0.0000 -157161.7896 -157161.7896 0.0000 12806.8959 -5643.3733 534946.2959 12806.8959 -5643.3733
ENERGY: 180 303.4888 659.6817 2917.2967 0.0000 -177408.7383 14815.0168 395.3832 0.0000 0.0000 -158317.8712 0.0000 -158317.8712 -158317.8712 0.0000 12699.3140 -5900.4534 534946.2959 12699.3140 -5900.4534
ENERGY: 200 109.2092 628.4709 2923.3581 0.0000 -179543.8037 15071.1480 441.8804 0.0000 0.0000 -160369.7371 0.0000 -160369.7371 -160369.7371 0.0000 12659.9898 -6154.8573 534946.2959 12659.9898 -6154.8573
TCL: Setting parameter constraintScaling to 2.5
TCL: Minimizing for 100 steps
ETITLE: TS BOND ANGLE DIHED IMPRP ELECT VDW BOUNDARY MISC KINETIC TOTAL TEMP POTENTIAL TOTAL3 TEMPAVG PRESSURE GPRESSURE VOLUME PRESSAVG GPRESSAVG
ENERGY: 200 109.2092 628.4709 2923.3581 0.0000 -179543.8037 15071.1480 220.9402 0.0000 0.0000 -160590.6773 0.0000 -160590.6773 -160590.6773 0.0000 13208.4125 -25273.9961 534946.2959 13208.4125 -25273.9961
ENERGY: 220 275.0661 652.0574 2925.2531 0.0000 -180395.2277 15108.8308 287.9393 0.0000 0.0000 -161146.0809 0.0000 -161146.0809 -161146.0809 0.0000 13000.0432 -5914.1850 534946.2959 13000.0432 -5914.1850
ENERGY: 240 144.5019 629.0472 2922.0905 0.0000 -181649.8712 15308.6598 331.5273 0.0000 0.0000 -162314.0445 0.0000 -162314.0445 -162314.0445 0.0000 12968.6472 -6075.5540 534946.2959 12968.6472 -6075.5540
ENERGY: 260 238.5947 648.2972 2922.1920 0.0000 -183610.0238 15752.8507 410.1087 0.0000 0.0000 -163637.9805 0.0000 -163637.9805 -163637.9805 0.0000 12997.5447 -6265.4276 534946.2959 12997.5447 -6265.4276
ENERGY: 280 182.8709 654.5795 2917.9277 0.0000 -184832.2397 16104.2984 431.2079 0.0000 0.0000 -164541.3553 0.0000 -164541.3553 -164541.3553 0.0000 13136.4361 -6268.3956 534946.2959 13136.4361 -6268.3956
ENERGY: 300 181.1840 672.5344 2923.2678 0.0000 -185739.4343 16391.6232 428.1023 0.0000 0.0000 -165142.7226 0.0000 -165142.7226 -165142.7226 0.0000 13254.1357 -6239.0619 534946.2959 13254.1357 -6239.0619
TCL: Setting parameter constraintScaling to 1.25
TCL: Minimizing for 100 steps
ETITLE: TS BOND ANGLE DIHED IMPRP ELECT VDW BOUNDARY MISC KINETIC TOTAL TEMP POTENTIAL TOTAL3 TEMPAVG PRESSURE GPRESSURE VOLUME PRESSAVG GPRESSAVG
ENERGY: 300 181.1840 672.5344 2923.2678 0.0000 -185739.4343 16391.6232 214.0511 0.0000 0.0000 -165356.7737 0.0000 -165356.7737 -165356.7737 0.0000 13669.8440 -26243.4362 534946.2959 13669.8440 -26243.4362
ENERGY: 320 165.0322 664.5310 2915.3162 0.0000 -186222.8426 16487.9323 249.7581 0.0000 0.0000 -165740.2728 0.0000 -165740.2728 -165740.2728 0.0000 13644.5646 -5912.2083 534946.2959 13644.5646 -5912.2083
ENERGY: 340 203.2696 680.4282 2911.2674 0.0000 -187472.0369 16824.7838 333.4241 0.0000 0.0000 -166518.8637 0.0000 -166518.8637 -166518.8637 0.0000 13597.0792 -6089.0000 534946.2959 13597.0792 -6089.0000
ENERGY: 360 147.7134 663.4449 2904.7208 0.0000 -188277.0052 17088.1184 351.7858 0.0000 0.0000 -167121.2218 0.0000 -167121.2218 -167121.2218 0.0000 13741.1459 -6053.4139 534946.2959 13741.1459 -6053.4139
ENERGY: 380 175.0558 659.7917 2910.3446 0.0000 -188909.1253 17344.1502 330.3895 0.0000 0.0000 -167489.3935 0.0000 -167489.3935 -167489.3935 0.0000 13888.8465 -5956.7456 534946.2959 13888.8465 -5956.7456
ENERGY: 400 206.7925 696.6898 2923.7590 0.0000 -189687.4111 17659.6469 324.1910 0.0000 0.0000 -167876.3319 0.0000 -167876.3319 -167876.3319 0.0000 14081.7166 -5874.7591 534946.2959 14081.7166 -5874.7591
TCL: Setting parameter constraintScaling to 0.625
TCL: Minimizing for 100 steps
ETITLE: TS BOND ANGLE DIHED IMPRP ELECT VDW BOUNDARY MISC KINETIC TOTAL TEMP POTENTIAL TOTAL3 TEMPAVG PRESSURE GPRESSURE VOLUME PRESSAVG GPRESSAVG
ENERGY: 400 206.7925 696.6898 2923.7590 0.0000 -189687.4111 17659.6469 162.0955 0.0000 0.0000 -168038.4274 0.0000 -168038.4274 -168038.4274 0.0000 14356.1530 -26499.6153 534946.2959 14356.1530 -26499.6153
ENERGY: 420 140.5220 645.0424 2903.1523 0.0000 -189903.0010 17687.1450 181.2630 0.0000 0.0000 -168345.8762 0.0000 -168345.8762 -168345.8762 0.0000 14307.5287 -5666.6778 534946.2959 14307.5287 -5666.6778
ENERGY: 440 163.8136 676.6832 2896.9720 0.0000 -190437.2843 17832.6127 222.1064 0.0000 0.0000 -168645.0964 0.0000 -168645.0964 -168645.0964 0.0000 14218.9767 -5811.8767 534946.2959 14218.9767 -5811.8767
ENERGY: 460 249.3752 726.0291 2896.2998 0.0000 -191721.3437 18260.6889 278.1000 0.0000 0.0000 -169310.8506 0.0000 -169310.8506 -169310.8506 0.0000 14341.6945 -5851.0367 534946.2959 14341.6945 -5851.0367
ENERGY: 480 164.8521 673.9544 2895.8702 0.0000 -191969.9131 18356.4847 264.0449 0.0000 0.0000 -169614.7067 0.0000 -169614.7067 -169614.7067 0.0000 14431.4476 -5762.7450 534946.2959 14431.4476 -5762.7450
ENERGY: 500 149.4705 695.6281 2916.8010 0.0000 -192518.6867 18628.9715 247.0590 0.0000 0.0000 -169880.7565 0.0000 -169880.7565 -169880.7565 0.0000 14685.2592 -5580.8804 534946.2959 14685.2592 -5580.8804
TCL: Setting parameter constraintScaling to 0.3125
TCL: Minimizing for 100 steps
ETITLE: TS BOND ANGLE DIHED IMPRP ELECT VDW BOUNDARY MISC KINETIC TOTAL TEMP POTENTIAL TOTAL3 TEMPAVG PRESSURE GPRESSURE VOLUME PRESSAVG GPRESSAVG
ENERGY: 500 149.4705 695.6281 2916.8010 0.0000 -192518.6867 18628.9715 123.5295 0.0000 0.0000 -170004.2860 0.0000 -170004.2860 -170004.2860 0.0000 14863.6383 -26655.0861 534946.2959 14863.6383 -26655.0861
ENERGY: 520 150.4800 644.0086 2881.9008 0.0000 -192937.3537 18726.1617 145.4328 0.0000 0.0000 -170389.3698 0.0000 -170389.3698 -170389.3698 0.0000 14772.3454 -5535.0763 534946.2959 14772.3454 -5535.0763
ENERGY: 540 166.1040 652.1031 2882.3692 0.0000 -193459.4937 18900.8797 164.2329 0.0000 0.0000 -170693.8049 0.0000 -170693.8049 -170693.8049 0.0000 14781.0203 -5574.1658 534946.2959 14781.0203 -5574.1658
ENERGY: 560 160.3955 669.6644 2879.5561 0.0000 -194455.6348 19267.3856 187.0568 0.0000 0.0000 -171291.5764 0.0000 -171291.5764 -171291.5764 0.0000 14971.3961 -5504.7875 534946.2959 14971.3961 -5504.7875
ENERGY: 580 215.2168 681.7229 2875.7553 0.0000 -194785.9045 19417.1190 189.2304 0.0000 0.0000 -171406.8601 0.0000 -171406.8601 -171406.8601 0.0000 15004.0811 -5502.7399 534946.2959 15004.0811 -5502.7399
ENERGY: 600 165.7387 683.9442 2872.4978 0.0000 -195030.0912 19527.6956 191.0141 0.0000 0.0000 -171589.2009 0.0000 -171589.2009 -171589.2009 0.0000 15081.3347 -5456.3918 534946.2959 15081.3347 -5456.3918
TCL: Setting parameter constraintScaling to 0.15625
TCL: Minimizing for 100 steps
ETITLE: TS BOND ANGLE DIHED IMPRP ELECT VDW BOUNDARY MISC KINETIC TOTAL TEMP POTENTIAL TOTAL3 TEMPAVG PRESSURE GPRESSURE VOLUME PRESSAVG GPRESSAVG
ENERGY: 600 165.7387 683.9442 2872.4978 0.0000 -195030.0912 19527.6956 95.5070 0.0000 0.0000 -171684.7079 0.0000 -171684.7079 -171684.7079 0.0000 15193.5098 -26905.6748 534946.2959 15193.5098 -26905.6748
ENERGY: 620 158.0549 670.3337 2875.4162 0.0000 -195356.5060 19609.3735 100.6850 0.0000 0.0000 -171942.6427 0.0000 -171942.6427 -171942.6427 0.0000 15252.9289 -5323.4838 534946.2959 15252.9289 -5323.4838
ENERGY: 640 348.9013 706.5105 2871.1388 0.0000 -196348.1957 19986.6286 117.7242 0.0000 0.0000 -172317.2922 0.0000 -172317.2922 -172317.2922 0.0000 15343.7457 -5336.5553 534946.2959 15343.7457 -5336.5553
ENERGY: 660 198.2759 674.3988 2863.8472 0.0000 -197216.2885 20345.5015 131.5669 0.0000 0.0000 -173002.6982 0.0000 -173002.6982 -173002.6982 0.0000 15500.4876 -5279.1756 534946.2959 15500.4876 -5279.1756
ENERGY: 680 162.9016 659.5797 2856.5121 0.0000 -197592.2926 20499.8654 134.8284 0.0000 0.0000 -173278.6054 0.0000 -173278.6054 -173278.6054 0.0000 15612.6246 -5222.3732 534946.2959 15612.6246 -5222.3732
ENERGY: 700 189.8239 697.8484 2862.3192 0.0000 -197956.6893 20628.8532 134.4042 0.0000 0.0000 -173443.4404 0.0000 -173443.4404 -173443.4404 0.0000 15716.2361 -5160.8381 534946.2959 15716.2361 -5160.8381
TCL: Setting parameter constraintScaling to 0.078125
TCL: Minimizing for 100 steps
ETITLE: TS BOND ANGLE DIHED IMPRP ELECT VDW BOUNDARY MISC KINETIC TOTAL TEMP POTENTIAL TOTAL3 TEMPAVG PRESSURE GPRESSURE VOLUME PRESSAVG GPRESSAVG
ENERGY: 700 189.8239 697.8484 2862.3192 0.0000 -197956.6893 20628.8532 67.2021 0.0000 0.0000 -173510.6425 0.0000 -173510.6425 -173510.6425 0.0000 15785.9043 -27008.3303 534946.2959 15785.9043 -27008.3303
ENERGY: 720 158.6979 651.7746 2854.6115 0.0000 -198103.9604 20678.5453 69.7108 0.0000 0.0000 -173690.6203 0.0000 -173690.6203 -173690.6203 0.0000 15763.5230 -5129.2364 534946.2959 15763.5230 -5129.2364
ENERGY: 740 348.9673 706.2978 2852.4769 0.0000 -198630.6188 20873.3421 74.5189 0.0000 0.0000 -173775.0158 0.0000 -173775.0158 -173775.0158 0.0000 15829.2815 -5121.2989 534946.2959 15829.2815 -5121.2989
ENERGY: 760 159.7912 670.9994 2850.3409 0.0000 -199136.3335 21043.9686 78.2471 0.0000 0.0000 -174332.9863 0.0000 -174332.9863 -174332.9863 0.0000 15948.5029 -5062.1174 534946.2959 15948.5029 -5062.1174
ENERGY: 780 163.0316 658.1689 2842.1045 0.0000 -199320.8418 21128.2657 79.8238 0.0000 0.0000 -174449.4472 0.0000 -174449.4472 -174449.4472 0.0000 15970.9986 -5057.5162 534946.2959 15970.9986 -5057.5162
ENERGY: 800 193.1447 717.4218 2846.7650 0.0000 -199759.2405 21303.1219 83.6134 0.0000 0.0000 -174615.1737 0.0000 -174615.1737 -174615.1737 0.0000 16043.2902 -5035.9712 534946.2959 16043.2902 -5035.9712
TCL: Setting parameter constraintScaling to 0.0390625
TCL: Minimizing for 100 steps
ETITLE: TS BOND ANGLE DIHED IMPRP ELECT VDW BOUNDARY MISC KINETIC TOTAL TEMP POTENTIAL TOTAL3 TEMPAVG PRESSURE GPRESSURE VOLUME PRESSAVG GPRESSAVG
ENERGY: 800 193.1447 717.4218 2846.7650 0.0000 -199759.2405 21303.1219 41.8067 0.0000 0.0000 -174656.9804 0.0000 -174656.9804 -174656.9804 0.0000 16082.8543 -27138.7781 534946.2959 16082.8543 -27138.7781
ENERGY: 820 165.6838 649.8100 2839.9112 0.0000 -199887.9892 21321.3624 42.0524 0.0000 0.0000 -174869.1694 0.0000 -174869.1694 -174869.1694 0.0000 16119.6478 -4984.0906 534946.2959 16119.6478 -4984.0906
ENERGY: 840 347.2397 748.4079 2855.5529 0.0000 -200618.5371 21593.7173 46.0826 0.0000 0.0000 -175027.5368 0.0000 -175027.5368 -175027.5368 0.0000 16205.5353 -4980.9399 534946.2959 16205.5353 -4980.9399
ENERGY: 860 184.7293 661.9405 2832.1980 0.0000 -201084.6046 21781.5040 48.4863 0.0000 0.0000 -175575.7466 0.0000 -175575.7466 -175575.7466 0.0000 16311.5624 -4916.4564 534946.2959 16311.5624 -4916.4564
ENERGY: 880 197.4352 668.2942 2828.4543 0.0000 -201586.9310 21994.0892 50.9204 0.0000 0.0000 -175847.7377 0.0000 -175847.7377 -175847.7377 0.0000 16422.5042 -4874.3458 534946.2959 16422.5042 -4874.3458
ENERGY: 900 170.1070 671.2528 2832.4282 0.0000 -201768.3299 22054.9911 51.1290 0.0000 0.0000 -175988.4217 0.0000 -175988.4217 -175988.4217 0.0000 16472.9892 -4853.2598 534946.2959 16472.9892 -4853.2598
TCL: Setting parameter constraintScaling to 0.01953125
TCL: Minimizing for 100 steps
ETITLE: TS BOND ANGLE DIHED IMPRP ELECT VDW BOUNDARY MISC KINETIC TOTAL TEMP POTENTIAL TOTAL3 TEMPAVG PRESSURE GPRESSURE VOLUME PRESSAVG GPRESSAVG
ENERGY: 900 170.1070 671.2528 2832.4282 0.0000 -201768.3299 22054.9911 25.5645 0.0000 0.0000 -176013.9862 0.0000 -176013.9862 -176013.9862 0.0000 16495.4617 -27213.2440 534946.2959 16495.4617 -27213.2440
ENERGY: 920 163.9109 660.7152 2825.6235 0.0000 -201898.8576 22113.4895 25.9996 0.0000 0.0000 -176109.1190 0.0000 -176109.1190 -176109.1190 0.0000 16509.1788 -4828.5509 534946.2959 16509.1788 -4828.5509
ENERGY: 940 391.4519 778.6646 2831.4385 0.0000 -202552.7828 22375.7187 27.9134 0.0000 0.0000 -176147.5957 0.0000 -176147.5957 -176147.5957 0.0000 16610.8270 -4797.5855 534946.2959 16610.8270 -4797.5855
ENERGY: 960 174.1728 659.6529 2821.5686 0.0000 -202964.6334 22536.1753 28.7255 0.0000 0.0000 -176744.3384 0.0000 -176744.3384 -176744.3384 0.0000 16723.4584 -4734.2099 534946.2959 16723.4584 -4734.2099
ENERGY: 980 165.2134 653.4560 2820.3391 0.0000 -203244.5042 22657.2116 29.4862 0.0000 0.0000 -176918.7979 0.0000 -176918.7979 -176918.7979 0.0000 16783.4617 -4707.6813 534946.2959 16783.4617 -4707.6813
ENERGY: 1000 184.9350 693.5926 2818.1024 0.0000 -203521.7092 22790.3101 30.3449 0.0000 0.0000 -177004.4241 0.0000 -177004.4241 -177004.4241 0.0000 16847.8861 -4684.2567 534946.2959 16847.8861 -4684.2567
TCL: Setting parameter constraintScaling to 0
TCL: Minimizing for 5000 steps
ETITLE: TS BOND ANGLE DIHED IMPRP ELECT VDW BOUNDARY MISC KINETIC TOTAL TEMP POTENTIAL TOTAL3 TEMPAVG PRESSURE GPRESSURE VOLUME PRESSAVG GPRESSAVG
ENERGY: 1000 184.9350 693.5926 2818.1024 0.0000 -203521.7092 22790.3101 0.0000 0.0000 0.0000 -177034.7690 0.0000 -177034.7690 -177034.7690 0.0000 16872.8604 -27249.2679 534946.2959 16872.8604 -27249.2679
ENERGY: 2000 169.3875 666.0345 2799.3604 0.0000 -214050.4541 27429.3474 0.0000 0.0000 0.0000 -182986.3242 0.0000 -182986.3242 -182986.3242 0.0000 19342.8036 -3372.6080 534946.2959 19342.8036 -3372.6080
ENERGY: 3000 168.4966 669.4472 2801.0366 0.0000 -217182.0014 28720.7642 0.0000 0.0000 0.0000 -184822.2568 0.0000 -184822.2568 -184822.2568 0.0000 20024.0453 -3032.2628 534946.2959 20024.0453 -3032.2628
ENERGY: 4000 166.4412 667.0252 2795.2565 0.0000 -218499.2401 29281.4534 0.0000 0.0000 0.0000 -185589.0639 0.0000 -185589.0639 -185589.0639 0.0000 20318.0390 -2864.0087 534946.2959 20318.0390 -2864.0087
ENERGY: 5000 166.2780 664.8286 2793.5246 0.0000 -219206.8322 29593.9197 0.0000 0.0000 0.0000 -185988.2813 0.0000 -185988.2813 -185988.2813 0.0000 20482.0849 -2779.2216 534946.2959 20482.0849 -2779.2216
ENERGY: 6000 166.1497 663.5952 2790.6512 0.0000 -219607.7126 29746.8629 0.0000 0.0000 0.0000 -186240.4538 0.0000 -186240.4538 -186240.4538 0.0000 20556.8594 -2748.7849 534946.2959 20556.8594 -2748.7849
