Info: SIMULATION PARAMETERS:
Info: TIMESTEP               1
Info: NUMBER OF STEPS        0
Info: STEPS PER CYCLE        10
Info: PERIODIC CELL BASIS 1  72.449 0 0
Info: PERIODIC CELL BASIS 2  0 93.247 0
Info: PERIODIC CELL BASIS 3  0 0 79.185
Info: PERIODIC CELL CENTER   -0.248 -0.156 -0.047
Info: WRAPPING WATERS AROUND PERIODIC BOUNDARIES ON OUTPUT.
Info: WRAPPING ALL CLUSTERS AROUND PERIODIC BOUNDARIES ON OUTPUT.
Info: FIRST LDB TIMESTEP     50
Info: LAST LDB TIMESTEP     -1
Info: HOM BACKGROUND SCALING 1
Info: PME BACKGROUND SCALING 1
Info: MIN ATOMS PER PATCH    40
Info: VELOCITY FILE          ../replicas/rep10/equilibration/eq1.vel
Info: CENTER OF MASS MOVING INITIALLY? NO
Info: DIELECTRIC             1
Info: EXCLUDE                SCALED ONE-FOUR
Info: 1-4 ELECTROSTATICS SCALED BY 0.833333
Info: MODIFIED 1-4 VDW PARAMETERS WILL BE USED
Info: DCD FILENAME           ../replicas/rep10/equilibration/eq2.dcd
Info: DCD FREQUENCY          5000
Info: DCD FIRST STEP         5000
Info: DCD FILE WILL CONTAIN UNIT CELL DATA
Info: XST FILENAME           ../replicas/rep10/equilibration/eq2.xst
Info: XST FREQUENCY          5000
Info: NO VELOCITY DCD OUTPUT
Info: NO FORCE DCD OUTPUT
Info: OUTPUT FILENAME        ../replicas/rep10/equilibration/eq2
Info: RESTART FILENAME       ../replicas/rep10/equilibration/eq2.restart
Info: RESTART FREQUENCY      5000
Info: BINARY RESTART FILES WILL BE USED
Info: SWITCHING ACTIVE
Info: SWITCHING ON           10
Info: SWITCHING OFF          12
Info: PAIRLIST DISTANCE      13.5
Info: PAIRLIST SHRINK RATE   0.01
Info: PAIRLIST GROW RATE     0.01
Info: PAIRLIST TRIGGER       0.3
Info: PAIRLISTS PER CYCLE    2
Info: PAIRLISTS ENABLED
Info: MARGIN                 0.48
Info: HYDROGEN GROUP CUTOFF  2.5
Info: PATCH DIMENSION        16.48
Info: ENERGY OUTPUT STEPS    500
Info: CROSSTERM ENERGY INCLUDED IN DIHEDRAL
Info: TIMING OUTPUT STEPS    5000
Info: PRESSURE OUTPUT STEPS  500
Info: HARMONIC CONSTRAINTS ACTIVE
Info: HARMONIC CONS EXP      2
Info: HARMONIC CONS SCALING  10
Info: LANGEVIN DYNAMICS ACTIVE
Info: LANGEVIN TEMPERATURE   300
Info: LANGEVIN USING BBK INTEGRATOR
Info: LANGEVIN DAMPING COEFFICIENT IS 5 INVERSE PS
Info: LANGEVIN DYNAMICS NOT APPLIED TO HYDROGENS
Info: BERENDSEN PRESSURE COUPLING ACTIVE
Info:     TARGET PRESSURE IS 1 BAR
Info:     COMPRESSIBILITY ESTIMATE IS 4.57e-05 BAR^(-1)
Info:     RELAXATION TIME IS 100 FS
Info:     APPLIED EVERY 2 STEPS
Info:     PRESSURE CONTROL IS GROUP-BASED
Info:       CELL FLUCTUATION IS ISOTROPIC
Info: PARTICLE MESH EWALD (PME) ACTIVE
Info: PME TOLERANCE               1e-06
Info: PME EWALD COEFFICIENT       0.257952
Info: PME INTERPOLATION ORDER     4
Info: PME GRID DIMENSIONS         80 96 80
Info: PME MAXIMUM GRID SPACING    1
Info: FULL ELECTROSTATIC EVALUATION FREQUENCY      2
Info: USING VERLET I (r-RESPA) MTS SCHEME.
Info: C1 SPLITTING OF LONG RANGE ELECTROSTATICS
Info: PLACING ATOMS IN PATCHES BY HYDROGEN GROUPS
Info: RIGID BONDS TO HYDROGEN : WATER
Info:         ERROR TOLERANCE : 1e-05
Info:          MAX ITERATIONS : 100
Info: RIGID WATER USING SETTLE ALGORITHM
Info: RANDOM NUMBER SEED     1503717681
Info: USE HYDROGEN BONDS?    NO
Info: Using AMBER format force field!
Info: AMBER PARM FILE        ../build/complex.top
Info: COORDINATE PDB         ../replicas/rep10/equilibration/eq1.coor
Info: Exclusions in PARM file will be ignored!
Info: SCNB (VDW SCALING)     2
Info: USING ARITHMETIC MEAN TO COMBINE L-J SIGMA PARAMETERS
Info: SUMMARY OF PARAMETERS:
Info: 71 BONDS
Info: 145 ANGLES
Info: 76 DIHEDRAL
Info: 0 IMPROPER
Info: 0 CROSSTERM
Info: 0 VDW
Info: 190 VDW_PAIRS
Info: 0 NBTHOLE_PAIRS
Info: STRUCTURE SUMMARY:
Info: 49394 ATOMS
Info: 49448 BONDS
Info: 8698 ANGLES
Info: 18780 DIHEDRALS
Info: 0 IMPROPERS
Info: 0 CROSSTERMS
Info: 0 EXCLUSIONS
Info: 2336 CONSTRAINTS
Info: 44667 RIGID BONDS
Info: 103515 DEGREES OF FREEDOM
Info: 17225 HYDROGEN GROUPS
Info: 4 ATOMS IN LARGEST HYDROGEN GROUP
Info: 17225 MIGRATION GROUPS
Info: 4 ATOMS IN LARGEST MIGRATION GROUP
Info: TOTAL MASS = 301478 amu
Info: TOTAL CHARGE = 1.00115e-05 e
Info: MASS DENSITY = 0.935846 g/cm^3
Info: ATOM DENSITY = 0.0923345 atoms/A^3
Info: ADDED 70656 IMPLICIT EXCLUSIONS
Info: NONBONDED TABLE R-SQUARED SPACING: 0.0625
Info: NONBONDED TABLE SIZE: 769 POINTS
Info: REMOVING COM VELOCITY 0.0521765 -0.0035281 0.0132433
TCL: Running for 5000 steps
ETITLE: TS BOND ANGLE DIHED IMPRP ELECT VDW BOUNDARY MISC KINETIC TOTAL TEMP POTENTIAL TOTAL3 TEMPAVG PRESSURE GPRESSURE VOLUME PRESSAVG GPRESSAVG
ENERGY: 0 381.0176 1242.1621 2904.5151 0.0000 -212661.8019 29651.2142 0.0000 0.0000 10096.2775 -168386.6155 98.1631 -178482.8929 -168376.9007 98.1631 -2291.2626 -2390.4708 534946.2959 -2291.2626 -2390.4708
ENERGY: 1000 1201.7506 1940.9485 3120.6723 0.0000 -193601.5303 26446.0706 756.2165 0.0000 24161.0304 -135974.8413 234.9106 -160135.8717 -135942.8144 218.1561 -33.4479 -7.7052 522133.9516 -20.0354 -20.0875
ENERGY: 2000 1396.8731 2139.3576 3140.0618 0.0000 -184446.6696 23234.6971 838.3248 0.0000 27952.0695 -125745.2858 271.7697 -153697.3552 -125698.7785 264.1339 -17.7637 9.4409 514811.0827 -27.2000 -27.7722
ENERGY: 3000 1514.0715 2202.3360 3136.0128 0.0000 -179163.2673 21634.4086 822.3231 0.0000 29544.2275 -120309.8877 287.2498 -149854.1153 -120272.8844 285.1414 -56.7052 -24.0214 510908.6769 -9.9195 -9.5325
ENERGY: 4000 1535.3382 2171.9394 3111.9591 0.0000 -176589.8371 20735.3601 793.4613 0.0000 30215.6029 -118026.1761 293.7774 -148241.7790 -117971.7626 292.6360 -21.2324 -12.9735 508991.5886 -2.1139 -1.9014
ENERGY: 5000 1557.2492 2229.2914 3118.1755 0.0000 -175752.5238 20470.2245 816.7603 0.0000 30637.6873 -116923.1356 297.8812 -147560.8229 -116869.2065 297.4993 2.9538 12.5813 505968.3630 4.4017 4.8609
TCL: Setting parameter constraintScaling to 5.0
TCL: Running for 5000 steps
ETITLE: TS BOND ANGLE DIHED IMPRP ELECT VDW BOUNDARY MISC KINETIC TOTAL TEMP POTENTIAL TOTAL3 TEMPAVG PRESSURE GPRESSURE VOLUME PRESSAVG GPRESSAVG
ENERGY: 5000 1557.2492 2229.2914 3118.1755 0.0000 -175752.5238 20470.2245 408.3801 0.0000 30635.6312 -117333.5718 297.8612 -147969.2030 -117288.5655 297.8612 41.2294 46.2116 505968.3630 41.2294 46.2116
ENERGY: 6000 1639.4181 2330.7951 3165.3303 0.0000 -175632.9718 20290.5028 636.0760 0.0000 30707.8028 -116863.0467 298.5629 -147570.8495 -116814.2197 298.4035 -60.6963 11.7504 503855.4329 -4.5235 -5.2755
ENERGY: 7000 1611.4150 2304.1563 3186.1305 0.0000 -175837.7943 20359.4410 651.0952 0.0000 30746.6057 -116978.9506 298.9402 -147725.5563 -116934.2902 299.1260 -26.5165 6.3361 503971.4668 5.4386 4.9499
ENERGY: 8000 1669.4290 2218.4256 3187.6959 0.0000 -175674.7818 20310.8441 655.1761 0.0000 30895.2429 -116737.9684 300.3853 -147633.2113 -116692.4684 299.9580 -25.3562 66.1698 501988.7935 -0.3795 0.0387
ENERGY: 9000 1587.0818 2303.6079 3153.0549 0.0000 -175548.0383 20273.5059 657.6827 0.0000 30891.4021 -116681.7030 300.3480 -147573.1051 -116643.1837 300.2489 -20.8819 24.5617 502385.7153 7.1309 7.3348
ENERGY: 10000 1552.6518 2330.6459 3151.5931 0.0000 -175633.9134 20137.1275 655.9562 0.0000 30913.1939 -116892.7451 300.5599 -147805.9390 -116852.7952 299.0481 -24.2082 -34.8960 500910.4530 -8.9041 -8.7475
TCL: Setting parameter constraintScaling to 2.5
TCL: Running for 5000 steps
ETITLE: TS BOND ANGLE DIHED IMPRP ELECT VDW BOUNDARY MISC KINETIC TOTAL TEMP POTENTIAL TOTAL3 TEMPAVG PRESSURE GPRESSURE VOLUME PRESSAVG GPRESSAVG
ENERGY: 10000 1552.6518 2330.6459 3151.5931 0.0000 -175633.9134 20137.1275 327.9781 0.0000 30911.1101 -117222.8070 300.5396 -148133.9171 -117178.5271 300.5396 -33.6648 -40.9723 500910.4530 -33.6648 -40.9723
ENERGY: 11000 1612.4355 2335.7509 3172.8799 0.0000 -175786.5289 20301.2627 497.4566 0.0000 30613.6039 -117253.1394 297.6470 -147866.7433 -117209.3738 298.0257 -63.5682 -35.5516 500080.9087 -2.3330 -2.5692
ENERGY: 12000 1625.7604 2339.6512 3201.3724 0.0000 -176094.7614 20348.7718 491.9550 0.0000 30954.8717 -117132.3789 300.9651 -148087.2507 -117088.5707 300.1168 67.1704 31.8315 498870.6585 -14.0920 -14.2150
ENERGY: 13000 1673.4144 2334.5066 3152.6953 0.0000 -175365.1560 20029.2830 509.7163 0.0000 30742.6998 -116922.8406 298.9022 -147665.5404 -116875.4898 299.6950 -68.2821 35.3311 499809.7725 4.8033 4.0258
ENERGY: 14000 1629.6058 2345.5644 3145.1091 0.0000 -175753.3932 20260.5160 499.5624 0.0000 30545.9542 -117327.0814 296.9893 -147873.0355 -117287.5567 299.0964 -69.4567 -42.0760 500318.5771 6.5428 6.8509
ENERGY: 15000 1674.4064 2342.4240 3164.3165 0.0000 -176158.4086 20199.7299 513.7525 0.0000 30842.0956 -117421.6837 299.8686 -148263.7793 -117391.3872 298.3080 -179.1142 -50.4700 500096.9210 0.6651 0.7159
TCL: Setting parameter constraintScaling to 1.25
TCL: Running for 5000 steps
ETITLE: TS BOND ANGLE DIHED IMPRP ELECT VDW BOUNDARY MISC KINETIC TOTAL TEMP POTENTIAL TOTAL3 TEMPAVG PRESSURE GPRESSURE VOLUME PRESSAVG GPRESSAVG
ENERGY: 15000 1674.4064 2342.4240 3164.3165 0.0000 -176158.4086 20199.7299 256.8763 0.0000 30840.0218 -117680.6338 299.8484 -148520.6556 -117637.0087 299.8484 -277.3172 -144.4234 500096.9210 -277.3172 -144.4234
ENERGY: 16000 1599.9259 2359.2653 3193.0899 0.0000 -175948.2906 20491.6167 406.6775 0.0000 30758.9089 -117138.8065 299.0598 -147897.7155 -117092.8794 299.6891 46.7850 -11.4978 500789.5121 3.9829 3.9645
ENERGY: 17000 1627.7655 2385.9913 3194.1381 0.0000 -176016.4061 20354.5688 418.4964 0.0000 30916.3072 -117119.1388 300.5901 -148035.4460 -117065.6378 298.7432 -49.7681 -30.4922 499944.2713 0.0785 0.3396
ENERGY: 18000 1648.3806 2359.2824 3204.2233 0.0000 -175425.4608 20080.3892 396.1293 0.0000 30852.0741 -116884.9820 299.9656 -147737.0561 -116834.9360 300.2403 0.3122 21.8313 500161.4487 0.3085 0.3685
ENERGY: 19000 1608.7466 2388.2335 3165.4526 0.0000 -175771.0397 20155.3329 399.2309 0.0000 30884.6253 -117169.4181 300.2821 -148054.0434 -117122.8049 299.4868 -82.4068 -37.3051 499673.7832 10.5819 10.8978
ENERGY: 20000 1636.2081 2337.1390 3161.2277 0.0000 -176269.0751 20434.8275 432.9433 0.0000 30864.4549 -117402.2746 300.0860 -148266.7295 -117359.7630 300.3357 -214.1316 -79.1376 498741.6489 -5.2011 -5.1006
TCL: Setting parameter constraintScaling to 0.625
TCL: Running for 5000 steps
ETITLE: TS BOND ANGLE DIHED IMPRP ELECT VDW BOUNDARY MISC KINETIC TOTAL TEMP POTENTIAL TOTAL3 TEMPAVG PRESSURE GPRESSURE VOLUME PRESSAVG GPRESSAVG
ENERGY: 20000 1636.2081 2337.1390 3161.2277 0.0000 -176269.0751 20434.8275 216.4716 0.0000 30862.4184 -117620.7827 300.0662 -148483.2011 -117576.8680 300.0662 -165.3069 -32.7932 498741.6489 -165.3069 -32.7932
ENERGY: 21000 1657.2169 2434.8881 3208.2953 0.0000 -175623.5376 19931.4161 324.2154 0.0000 30502.5771 -117564.9287 296.5676 -148067.5058 -117516.2699 300.0369 36.7844 21.7154 497350.0261 -8.3988 -8.3297
ENERGY: 22000 1622.6378 2390.1188 3213.4997 0.0000 -175417.1962 19973.2938 307.1210 0.0000 30901.7870 -117008.7381 300.4490 -147910.5251 -116962.8802 300.1038 23.3400 31.7412 499112.4291 5.7444 5.1342
ENERGY: 23000 1607.8656 2383.4583 3194.5043 0.0000 -175722.0312 20337.4177 323.3579 0.0000 30982.5215 -116892.9059 301.2339 -147875.4274 -116848.9094 300.4073 42.4142 103.0046 499432.9167 1.6558 1.3045
ENERGY: 24000 1674.0298 2388.7622 3164.6834 0.0000 -175754.1684 19915.9352 324.6503 0.0000 30973.1373 -117312.9701 301.1427 -148286.1075 -117267.3926 299.6377 -40.6360 14.8317 499032.8896 -0.1527 0.2705
ENERGY: 25000 1679.8451 2344.6822 3193.2108 0.0000 -175548.6471 20066.6519 309.5948 0.0000 30705.8025 -117248.8598 298.5435 -147954.6623 -117195.2418 299.3839 8.3409 13.5999 498489.1066 -6.1451 -6.3388
TCL: Setting parameter constraintScaling to 0.3125
TCL: Running for 5000 steps
ETITLE: TS BOND ANGLE DIHED IMPRP ELECT VDW BOUNDARY MISC KINETIC TOTAL TEMP POTENTIAL TOTAL3 TEMPAVG PRESSURE GPRESSURE VOLUME PRESSAVG GPRESSAVG
ENERGY: 25000 1679.8451 2344.6822 3193.2108 0.0000 -175548.6471 20066.6519 154.7974 0.0000 30703.7415 -117405.7182 298.5234 -148109.4597 -117361.4958 298.5234 -33.8680 -18.7004 498489.1066 -33.8680 -18.7004
ENERGY: 26000 1602.3672 2444.6827 3199.9315 0.0000 -175591.7478 20054.4729 247.9988 0.0000 30882.5951 -117159.6996 300.2624 -148042.2947 -117122.3931 299.4034 42.5651 2.9065 498239.6647 13.5647 12.9510
ENERGY: 27000 1669.0138 2387.1161 3220.2657 0.0000 -175866.7672 20076.0425 239.0688 0.0000 30865.3982 -117409.8620 300.0952 -148275.2602 -117375.7335 299.6131 -13.4090 13.4869 498828.5327 7.3212 7.1762
ENERGY: 28000 1618.1755 2378.3569 3202.4265 0.0000 -175366.4662 19869.5552 252.0121 0.0000 31057.1955 -116988.7444 301.9599 -148045.9400 -116934.9780 300.3526 -58.9091 -4.5219 497727.9894 -1.7101 -1.8555
ENERGY: 29000 1579.2856 2362.1172 3177.0540 0.0000 -175467.4884 20008.7192 252.0442 0.0000 30991.5110 -117096.7573 301.3213 -148088.2683 -117054.4189 300.7625 -48.8327 -42.2630 499069.6727 4.4818 4.4529
ENERGY: 30000 1576.9146 2343.7876 3189.3696 0.0000 -175587.7074 19935.1288 261.7146 0.0000 30808.8339 -117471.9584 299.5452 -148280.7923 -117423.8246 299.5584 -2.2829 -50.3734 499415.2575 6.6361 6.1009
TCL: Setting parameter constraintScaling to 0.15625
TCL: Running for 5000 steps
ETITLE: TS BOND ANGLE DIHED IMPRP ELECT VDW BOUNDARY MISC KINETIC TOTAL TEMP POTENTIAL TOTAL3 TEMPAVG PRESSURE GPRESSURE VOLUME PRESSAVG GPRESSAVG
ENERGY: 30000 1576.9146 2343.7876 3189.3696 0.0000 -175587.7075 19935.1288 130.8573 0.0000 30806.7811 -117604.8685 299.5252 -148411.6496 -117560.9499 299.5252 -67.0803 -104.5034 499415.2575 -67.0803 -104.5034
ENERGY: 31000 1643.6968 2413.8046 3211.6150 0.0000 -175676.7565 20030.3931 200.7233 0.0000 30893.4032 -117283.1205 300.3674 -148176.5237 -117230.1624 300.0048 -89.2195 -5.2876 498434.9828 3.3038 3.5589
ENERGY: 32000 1639.3774 2447.3011 3201.2845 0.0000 -175291.5037 20064.4086 223.6452 0.0000 30678.3346 -117037.1523 298.2764 -147715.4870 -116990.6625 299.7896 -19.8132 43.8670 499815.1824 12.4208 12.1241
ENERGY: 33000 1609.6340 2360.5186 3224.0741 0.0000 -175777.7515 20142.6054 217.0358 0.0000 30846.7947 -117377.0890 299.9143 -148223.8837 -117333.7431 299.7334 -1.3710 19.8893 498841.3457 1.7682 1.7040
ENERGY: 34000 1621.1070 2361.0692 3201.1941 0.0000 -175244.5684 19844.6056 208.7239 0.0000 30854.5681 -117153.3005 299.9899 -148007.8685 -117105.1640 300.1408 -29.0659 -43.1912 498006.4248 -3.3843 -2.7460
ENERGY: 35000 1592.1837 2475.4758 3224.5067 0.0000 -175599.6905 20038.3597 213.1373 0.0000 30757.1084 -117298.9190 299.0423 -148056.0274 -117250.7913 300.5367 3.1611 4.1567 498663.3920 1.3042 0.9923
TCL: Setting parameter constraintScaling to 0.078125
TCL: Running for 5000 steps
ETITLE: TS BOND ANGLE DIHED IMPRP ELECT VDW BOUNDARY MISC KINETIC TOTAL TEMP POTENTIAL TOTAL3 TEMPAVG PRESSURE GPRESSURE VOLUME PRESSAVG GPRESSAVG
ENERGY: 35000 1592.1837 2475.4758 3224.5067 0.0000 -175599.6905 20038.3597 106.5686 0.0000 30755.0966 -117407.4994 299.0227 -148162.5960 -117364.8669 299.0227 -13.2940 -7.4689 498663.3920 -13.2940 -7.4689
ENERGY: 36000 1634.6203 2413.1031 3250.9562 0.0000 -175612.2408 19967.0705 154.0804 0.0000 30854.9318 -117337.4785 299.9934 -148192.4103 -117285.1403 300.6621 57.3714 76.6950 497539.6006 -0.2223 -0.3877
ENERGY: 37000 1681.6592 2375.3504 3197.4721 0.0000 -175698.7491 20077.8561 161.1565 0.0000 31065.2831 -117139.9716 302.0386 -148205.2547 -117104.3893 300.9599 -103.6190 -149.8547 499041.0485 9.7656 9.9672
ENERGY: 38000 1643.1051 2404.8386 3200.7095 0.0000 -176011.4704 20222.2717 168.3514 0.0000 30789.9950 -117582.1991 299.3620 -148372.1941 -117534.9121 298.9938 57.2646 42.0597 497226.7147 -0.6357 -0.5094
ENERGY: 39000 1599.3559 2433.2188 3187.6916 0.0000 -175602.9157 19976.3609 165.5336 0.0000 30771.2833 -117469.4717 299.1801 -148240.7550 -117416.5273 299.6933 29.5478 27.5851 497858.5538 7.7950 7.8981
ENERGY: 40000 1588.9614 2439.0413 3216.0235 0.0000 -175648.7330 19911.4770 182.8152 0.0000 30989.3476 -117321.0671 301.3003 -148310.4146 -117282.1913 300.0113 79.8858 27.1165 496846.9934 -0.6798 -0.3777
TCL: Setting parameter constraintScaling to 0.0390625
TCL: Running for 5000 steps
ETITLE: TS BOND ANGLE DIHED IMPRP ELECT VDW BOUNDARY MISC KINETIC TOTAL TEMP POTENTIAL TOTAL3 TEMPAVG PRESSURE GPRESSURE VOLUME PRESSAVG GPRESSAVG
ENERGY: 40000 1588.9614 2439.0413 3216.0235 0.0000 -175648.7330 19911.4770 91.4076 0.0000 30987.3231 -117414.4991 301.2806 -148401.8222 -117371.1849 301.2806 69.6660 7.5298 496846.9934 69.6660 7.5298
ENERGY: 41000 1598.0566 2464.0801 3227.2395 0.0000 -175880.7278 19978.5170 111.7759 0.0000 30944.4026 -117556.6560 300.8633 -148501.0586 -117514.9564 300.4397 7.9602 45.8735 495681.9215 -5.0742 -5.2614
ENERGY: 42000 1603.9267 2386.1874 3197.0708 0.0000 -175906.3206 20106.7946 118.4096 0.0000 30752.0114 -117741.9201 298.9927 -148493.9315 -117692.0565 299.1402 -62.9203 -11.2098 495660.0453 -3.7375 -4.4421
ENERGY: 43000 1610.7899 2451.0943 3192.9365 0.0000 -176096.3603 20115.6328 122.7687 0.0000 30655.3060 -117947.8321 298.0525 -148603.1381 -117906.5368 299.0519 14.0850 13.5300 496561.1518 -5.6882 -5.6688
ENERGY: 44000 1611.8619 2401.1400 3200.6394 0.0000 -175652.0383 19889.5827 136.3217 0.0000 30982.3076 -117430.1849 301.2318 -148412.4925 -117375.9832 300.6072 -25.8925 -36.9514 497203.1101 4.3362 4.9552
ENERGY: 45000 1680.7934 2429.7515 3217.9905 0.0000 -175964.6453 20081.8207 129.6269 0.0000 30993.5734 -117431.0889 301.3414 -148424.6623 -117396.4045 300.0103 -91.6374 -84.4260 497844.2435 17.8147 17.7841
TCL: Setting parameter constraintScaling to 0.01953125
TCL: Running for 5000 steps
ETITLE: TS BOND ANGLE DIHED IMPRP ELECT VDW BOUNDARY MISC KINETIC TOTAL TEMP POTENTIAL TOTAL3 TEMPAVG PRESSURE GPRESSURE VOLUME PRESSAVG GPRESSAVG
ENERGY: 45000 1680.7934 2429.7515 3217.9905 0.0000 -175964.6453 20081.8207 64.8135 0.0000 30991.4970 -117497.9787 301.3212 -148489.4758 -117457.8074 301.3212 -117.6100 -98.6946 497844.2435 -117.6100 -98.6946
ENERGY: 46000 1638.4576 2404.8431 3194.3082 0.0000 -176077.8555 20103.4973 86.7096 0.0000 30931.0905 -117718.9493 300.7339 -148650.0397 -117668.5061 300.0991 -32.3736 -16.9996 497958.3831 1.8086 2.0022
ENERGY: 47000 1667.0707 2401.5322 3242.0964 0.0000 -176105.7548 20320.1811 89.4163 0.0000 30714.7696 -117670.6886 298.6306 -148385.4582 -117632.4020 298.8120 0.7332 64.0382 496508.8407 -13.3288 -13.4534
ENERGY: 48000 1637.4873 2363.2559 3210.9902 0.0000 -175726.2421 20162.6682 101.0221 0.0000 30804.2893 -117446.5291 299.5010 -148250.8184 -117403.0754 300.0356 -112.1756 18.0875 497827.1050 11.3327 11.5260
ENERGY: 49000 1589.0850 2415.0624 3207.7244 0.0000 -175941.7664 20007.8483 96.7928 0.0000 30960.1435 -117665.1102 301.0163 -148625.2536 -117616.2421 299.1266 -30.1397 -17.2593 497885.9876 4.0604 3.8839
ENERGY: 50000 1611.4951 2416.7644 3207.4133 0.0000 -175520.0336 19922.4869 101.1164 0.0000 30906.2987 -117354.4587 300.4928 -148260.7574 -117310.8986 299.8783 -92.5871 -11.5286 496910.4524 -7.6591 -7.1915
TCL: Setting parameter constraintScaling to 0
TCL: Running for 5000 steps
ETITLE: TS BOND ANGLE DIHED IMPRP ELECT VDW BOUNDARY MISC KINETIC TOTAL TEMP POTENTIAL TOTAL3 TEMPAVG PRESSURE GPRESSURE VOLUME PRESSAVG GPRESSAVG
ENERGY: 50000 1611.4951 2416.7644 3207.4133 0.0000 -175520.0336 19922.4869 0.0000 0.0000 30904.2213 -117457.6526 300.4726 -148361.8739 -117416.1504 300.4726 -103.3707 -22.8652 496910.4524 -103.3707 -22.8652
ENERGY: 51000 1625.5670 2377.7927 3217.8684 0.0000 -175629.9479 20044.3300 0.0000 0.0000 30884.8922 -117479.4975 300.2847 -148364.3897 -117428.6379 300.8931 69.1731 39.2830 497159.1716 11.7788 11.4777
ENERGY: 52000 1607.3470 2384.7354 3240.4154 0.0000 -175976.1267 20081.0145 0.0000 0.0000 30941.6389 -117720.9755 300.8364 -148662.6144 -117662.5582 300.6536 -24.7494 6.3784 497045.1656 -3.0735 -2.7696
ENERGY: 53000 1616.7107 2437.5068 3209.7708 0.0000 -175470.4262 19977.0092 0.0000 0.0000 30848.8042 -117380.6244 299.9338 -148229.4286 -117336.0025 300.1295 -53.8960 -113.5535 497846.6096 0.1985 0.7505
ENERGY: 54000 1633.8497 2413.3431 3196.5122 0.0000 -175730.4884 19949.8410 0.0000 0.0000 30864.2131 -117672.7293 300.0836 -148536.9424 -117629.6033 300.0018 -23.9303 29.4323 496554.0880 -2.2384 -2.2163
ENERGY: 55000 1656.0388 2409.6645 3177.4249 0.0000 -175918.8670 20031.0422 0.0000 0.0000 30918.9321 -117725.7646 300.6156 -148644.6967 -117683.9166 300.1095 -37.1006 -12.8816 495936.0534 -3.1091 -3.5400
