Info: SIMULATION PARAMETERS:
Info: TIMESTEP               1
Info: NUMBER OF STEPS        0
Info: STEPS PER CYCLE        10
Info: PERIODIC CELL BASIS 1  72.449 0 0
Info: PERIODIC CELL BASIS 2  0 93.247 0
Info: PERIODIC CELL BASIS 3  0 0 79.185
Info: PERIODIC CELL CENTER   -0.248 -0.156 -0.047
Info: WRAPPING WATERS AROUND PERIODIC BOUNDARIES ON OUTPUT.
Info: WRAPPING ALL CLUSTERS AROUND PERIODIC BOUNDARIES ON OUTPUT.
Info: FIRST LDB TIMESTEP     50
Info: LAST LDB TIMESTEP     -1
Info: HOM BACKGROUND SCALING 1
Info: PME BACKGROUND SCALING 1
Info: MIN ATOMS PER PATCH    40
Info: VELOCITY FILE          ../replicas/rep87/equilibration/eq1.vel
Info: CENTER OF MASS MOVING INITIALLY? NO
Info: DIELECTRIC             1
Info: EXCLUDE                SCALED ONE-FOUR
Info: 1-4 ELECTROSTATICS SCALED BY 0.833333
Info: MODIFIED 1-4 VDW PARAMETERS WILL BE USED
Info: DCD FILENAME           ../replicas/rep87/equilibration/eq2.dcd
Info: DCD FREQUENCY          5000
Info: DCD FIRST STEP         5000
Info: DCD FILE WILL CONTAIN UNIT CELL DATA
Info: XST FILENAME           ../replicas/rep87/equilibration/eq2.xst
Info: XST FREQUENCY          5000
Info: NO VELOCITY DCD OUTPUT
Info: NO FORCE DCD OUTPUT
Info: OUTPUT FILENAME        ../replicas/rep87/equilibration/eq2
Info: RESTART FILENAME       ../replicas/rep87/equilibration/eq2.restart
Info: RESTART FREQUENCY      5000
Info: BINARY RESTART FILES WILL BE USED
Info: SWITCHING ACTIVE
Info: SWITCHING ON           10
Info: SWITCHING OFF          12
Info: PAIRLIST DISTANCE      13.5
Info: PAIRLIST SHRINK RATE   0.01
Info: PAIRLIST GROW RATE     0.01
Info: PAIRLIST TRIGGER       0.3
Info: PAIRLISTS PER CYCLE    2
Info: PAIRLISTS ENABLED
Info: MARGIN                 0.48
Info: HYDROGEN GROUP CUTOFF  2.5
Info: PATCH DIMENSION        16.48
Info: ENERGY OUTPUT STEPS    500
Info: CROSSTERM ENERGY INCLUDED IN DIHEDRAL
Info: TIMING OUTPUT STEPS    5000
Info: PRESSURE OUTPUT STEPS  500
Info: HARMONIC CONSTRAINTS ACTIVE
Info: HARMONIC CONS EXP      2
Info: HARMONIC CONS SCALING  10
Info: LANGEVIN DYNAMICS ACTIVE
Info: LANGEVIN TEMPERATURE   300
Info: LANGEVIN USING BBK INTEGRATOR
Info: LANGEVIN DAMPING COEFFICIENT IS 5 INVERSE PS
Info: LANGEVIN DYNAMICS NOT APPLIED TO HYDROGENS
Info: BERENDSEN PRESSURE COUPLING ACTIVE
Info:     TARGET PRESSURE IS 1 BAR
Info:     COMPRESSIBILITY ESTIMATE IS 4.57e-05 BAR^(-1)
Info:     RELAXATION TIME IS 100 FS
Info:     APPLIED EVERY 2 STEPS
Info:     PRESSURE CONTROL IS GROUP-BASED
Info:       CELL FLUCTUATION IS ISOTROPIC
Info: PARTICLE MESH EWALD (PME) ACTIVE
Info: PME TOLERANCE               1e-06
Info: PME EWALD COEFFICIENT       0.257952
Info: PME INTERPOLATION ORDER     4
Info: PME GRID DIMENSIONS         80 96 80
Info: PME MAXIMUM GRID SPACING    1
Info: FULL ELECTROSTATIC EVALUATION FREQUENCY      2
Info: USING VERLET I (r-RESPA) MTS SCHEME.
Info: C1 SPLITTING OF LONG RANGE ELECTROSTATICS
Info: PLACING ATOMS IN PATCHES BY HYDROGEN GROUPS
Info: RIGID BONDS TO HYDROGEN : WATER
Info:         ERROR TOLERANCE : 1e-05
Info:          MAX ITERATIONS : 100
Info: RIGID WATER USING SETTLE ALGORITHM
Info: RANDOM NUMBER SEED     1503694640
Info: USE HYDROGEN BONDS?    NO
Info: Using AMBER format force field!
Info: AMBER PARM FILE        ../build/complex.top
Info: COORDINATE PDB         ../replicas/rep87/equilibration/eq1.coor
Info: Exclusions in PARM file will be ignored!
Info: SCNB (VDW SCALING)     2
Info: USING ARITHMETIC MEAN TO COMBINE L-J SIGMA PARAMETERS
Info: SUMMARY OF PARAMETERS:
Info: 71 BONDS
Info: 145 ANGLES
Info: 76 DIHEDRAL
Info: 0 IMPROPER
Info: 0 CROSSTERM
Info: 0 VDW
Info: 190 VDW_PAIRS
Info: 0 NBTHOLE_PAIRS
Info: STRUCTURE SUMMARY:
Info: 49394 ATOMS
Info: 49448 BONDS
Info: 8698 ANGLES
Info: 18780 DIHEDRALS
Info: 0 IMPROPERS
Info: 0 CROSSTERMS
Info: 0 EXCLUSIONS
Info: 2336 CONSTRAINTS
Info: 44667 RIGID BONDS
Info: 103515 DEGREES OF FREEDOM
Info: 17225 HYDROGEN GROUPS
Info: 4 ATOMS IN LARGEST HYDROGEN GROUP
Info: 17225 MIGRATION GROUPS
Info: 4 ATOMS IN LARGEST MIGRATION GROUP
Info: TOTAL MASS = 301478 amu
Info: TOTAL CHARGE = 1.00115e-05 e
Info: MASS DENSITY = 0.935846 g/cm^3
Info: ATOM DENSITY = 0.0923345 atoms/A^3
Info: ADDED 70656 IMPLICIT EXCLUSIONS
Info: NONBONDED TABLE R-SQUARED SPACING: 0.0625
Info: NONBONDED TABLE SIZE: 769 POINTS
Info: REMOVING COM VELOCITY 0.0364635 -0.00829531 -0.0171352
TCL: Running for 5000 steps
ETITLE: TS BOND ANGLE DIHED IMPRP ELECT VDW BOUNDARY MISC KINETIC TOTAL TEMP POTENTIAL TOTAL3 TEMPAVG PRESSURE GPRESSURE VOLUME PRESSAVG GPRESSAVG
ENERGY: 0 403.0238 1201.2507 2925.0786 0.0000 -212730.2592 29505.1779 0.0000 0.0000 10108.1142 -168587.6140 98.2782 -178695.7282 -168577.9586 98.2782 -2400.9752 -2502.1919 534946.2959 -2400.9752 -2502.1919
ENERGY: 1000 1280.6677 2021.4860 3129.1508 0.0000 -193559.6011 26466.9239 764.5310 0.0000 24071.1609 -135825.6808 234.0368 -159896.8417 -135798.1252 218.8396 9.4838 -0.5394 522295.9890 -12.7908 -12.1452
ENERGY: 2000 1429.8065 2172.6888 3132.7793 0.0000 -184051.8236 23293.1094 814.7693 0.0000 27756.2088 -125452.4615 269.8654 -153208.6703 -125413.6557 264.0422 -37.9341 -13.4636 515388.9490 -19.6002 -19.5876
ENERGY: 3000 1516.8948 2171.3294 3134.9972 0.0000 -179711.0440 21819.0328 780.7712 0.0000 29502.4598 -120785.5587 286.8437 -150288.0186 -120737.4050 284.3831 -84.7223 -36.7088 509449.2599 -21.5090 -21.5953
ENERGY: 4000 1580.0491 2231.4366 3126.9077 0.0000 -177118.9796 20856.0872 799.5701 0.0000 30386.6281 -118138.3008 295.4402 -148524.9289 -118091.7843 293.6132 -22.8192 -23.0970 505671.1885 -25.3115 -25.0365
ENERGY: 5000 1587.2550 2227.9269 3169.2472 0.0000 -175561.0516 19915.8282 784.5990 0.0000 30687.3376 -117188.8578 298.3639 -147876.1954 -117139.0070 297.0485 -26.9177 -12.2734 505639.3536 5.8045 5.3864
TCL: Setting parameter constraintScaling to 5.0
TCL: Running for 5000 steps
ETITLE: TS BOND ANGLE DIHED IMPRP ELECT VDW BOUNDARY MISC KINETIC TOTAL TEMP POTENTIAL TOTAL3 TEMPAVG PRESSURE GPRESSURE VOLUME PRESSAVG GPRESSAVG
ENERGY: 5000 1587.2550 2227.9269 3169.2472 0.0000 -175561.0516 19915.8282 392.2995 0.0000 30685.2781 -117583.2168 298.3439 -148268.4949 -117537.1025 298.3439 -177.9586 -167.6184 505639.3536 -177.9586 -167.6184
ENERGY: 6000 1595.9259 2294.1138 3137.3341 0.0000 -175402.5823 19969.2430 653.2710 0.0000 30823.6223 -116929.0721 299.6890 -147752.6944 -116878.8600 299.1204 12.7436 3.4784 504513.6878 1.3637 1.2993
ENERGY: 7000 1610.4333 2293.4194 3160.6680 0.0000 -175316.5888 20041.4668 624.5134 0.0000 30697.6354 -116888.4525 298.4640 -147586.0879 -116841.6506 298.5041 -37.2114 17.2587 501991.2590 -2.4395 -2.0241
ENERGY: 8000 1591.0431 2300.2409 3152.0795 0.0000 -175381.4759 20257.0266 640.9490 0.0000 30939.9903 -116500.1465 300.8204 -147440.1368 -116445.4216 300.0777 -3.8051 25.7298 502374.7843 -9.8786 -9.9079
ENERGY: 9000 1586.3176 2268.3947 3155.5265 0.0000 -174973.5545 19989.6922 624.6900 0.0000 30710.9463 -116637.9872 298.5935 -147348.9335 -116592.9440 299.0539 24.3190 43.4714 503693.5829 -4.0199 -3.6280
ENERGY: 10000 1632.2098 2312.4474 3155.7389 0.0000 -174829.4265 19753.2738 669.4448 0.0000 30791.9645 -116514.3472 299.3812 -147306.3117 -116471.8577 300.0493 0.8826 -25.9349 502474.4276 4.6671 4.3160
TCL: Setting parameter constraintScaling to 2.5
TCL: Running for 5000 steps
ETITLE: TS BOND ANGLE DIHED IMPRP ELECT VDW BOUNDARY MISC KINETIC TOTAL TEMP POTENTIAL TOTAL3 TEMPAVG PRESSURE GPRESSURE VOLUME PRESSAVG GPRESSAVG
ENERGY: 10000 1632.2098 2312.4474 3155.7389 0.0000 -174829.4265 19753.2738 334.7224 0.0000 30789.9078 -116851.1263 299.3612 -147641.0341 -116806.8180 299.3612 -101.8991 -120.3060 502474.4276 -101.8991 -120.3060
ENERGY: 11000 1627.1535 2353.7171 3151.7308 0.0000 -174984.4545 19725.8116 512.7542 0.0000 30762.4926 -116850.7946 299.0946 -147613.2872 -116807.9581 300.1195 4.2792 5.4242 502516.4647 -4.6239 -4.4549
ENERGY: 12000 1588.1324 2317.9078 3183.8673 0.0000 -175166.8151 20098.1667 514.5079 0.0000 30874.8540 -116589.3790 300.1871 -147464.2331 -116538.6211 301.1393 99.0312 99.8726 500875.5260 -7.8943 -7.5608
ENERGY: 13000 1639.5688 2334.2867 3174.8059 0.0000 -174702.9576 19584.4822 508.0462 0.0000 30955.9844 -116505.7833 300.9759 -147461.7678 -116468.9380 301.4530 18.3508 -8.2453 501892.4797 6.8305 6.6839
ENERGY: 14000 1590.1238 2319.8132 3194.8606 0.0000 -176021.5501 20281.3481 530.0040 0.0000 30965.7624 -117139.6379 301.0710 -148105.4003 -117097.6933 300.3030 -47.2512 36.5581 498975.4773 -27.6429 -27.3920
ENERGY: 15000 1615.0329 2325.0540 3163.9287 0.0000 -175360.9758 20031.0874 488.2731 0.0000 30908.0557 -116829.5440 300.5099 -147737.5997 -116783.6947 300.0887 -58.1688 47.0363 498852.5114 -13.4414 -12.8611
TCL: Setting parameter constraintScaling to 1.25
TCL: Running for 5000 steps
ETITLE: TS BOND ANGLE DIHED IMPRP ELECT VDW BOUNDARY MISC KINETIC TOTAL TEMP POTENTIAL TOTAL3 TEMPAVG PRESSURE GPRESSURE VOLUME PRESSAVG GPRESSAVG
ENERGY: 15000 1615.0329 2325.0540 3163.9287 0.0000 -175360.9758 20031.0874 244.1365 0.0000 30906.0165 -117075.7197 300.4901 -147981.7363 -117033.2317 300.4901 -84.7245 19.1121 498852.5114 -84.7245 19.1121
ENERGY: 16000 1688.3718 2390.0888 3192.8443 0.0000 -175336.1189 19940.3617 395.2131 0.0000 31026.3506 -116702.8887 301.6600 -147729.2393 -116657.3585 300.6769 -91.9101 -0.4754 501035.4385 10.6281 10.4249
ENERGY: 17000 1597.0354 2401.0655 3231.9117 0.0000 -175840.2806 20306.3201 392.0059 0.0000 31002.9171 -116909.0249 301.4322 -147911.9420 -116867.9993 299.5967 58.6937 -0.6040 500217.5611 2.7348 3.1273
ENERGY: 18000 1630.6995 2317.3473 3221.9240 0.0000 -175729.2819 20066.3833 404.4227 0.0000 30721.5761 -117366.9291 298.6968 -148088.5051 -117316.2543 299.3248 -86.5806 -33.5602 498942.7461 -8.0423 -8.3690
ENERGY: 19000 1643.4625 2346.0919 3170.0412 0.0000 -175424.5582 20103.3399 399.6628 0.0000 30892.7317 -116869.2282 300.3609 -147761.9598 -116829.5120 299.9629 -36.1525 26.8353 499470.7641 6.8963 6.9548
ENERGY: 20000 1598.0772 2367.5747 3205.5759 0.0000 -175433.0900 19793.5396 403.2047 0.0000 31142.4858 -116922.6321 302.7892 -148065.1179 -116878.0144 300.5156 70.2038 146.6559 497818.1973 -5.9216 -5.4735
TCL: Setting parameter constraintScaling to 0.625
TCL: Running for 5000 steps
ETITLE: TS BOND ANGLE DIHED IMPRP ELECT VDW BOUNDARY MISC KINETIC TOTAL TEMP POTENTIAL TOTAL3 TEMPAVG PRESSURE GPRESSURE VOLUME PRESSAVG GPRESSAVG
ENERGY: 20000 1598.0772 2367.5747 3205.5759 0.0000 -175433.0900 19793.5396 201.6024 0.0000 31140.4576 -117126.2627 302.7695 -148266.7203 -117082.9152 302.7695 -32.7056 45.3103 497818.1973 -32.7056 45.3103
ENERGY: 21000 1591.0744 2374.2208 3217.7103 0.0000 -175717.9682 20097.2871 314.0553 0.0000 30763.3629 -117360.2573 299.1031 -148123.6202 -117318.8229 299.4229 -66.6645 -15.9619 499477.0265 8.4981 9.2270
ENERGY: 22000 1623.6874 2338.7165 3217.8216 0.0000 -175391.4018 20007.9743 309.1852 0.0000 30869.0326 -117024.9842 300.1305 -147894.0168 -116996.6353 299.8162 -35.2475 -22.1230 499097.9814 2.2710 2.7168
ENERGY: 23000 1613.9559 2398.6322 3194.1978 0.0000 -175501.7134 19886.9177 306.5439 0.0000 30983.2832 -117118.1828 301.2413 -148101.4659 -117071.0920 300.3518 45.5296 37.4338 499382.9330 -1.4897 -0.9187
ENERGY: 24000 1668.1246 2413.5839 3178.4777 0.0000 -175141.3528 19726.2217 324.4447 0.0000 30721.2817 -117109.2185 298.6940 -147830.5002 -117080.2737 299.6954 6.8019 77.1986 498752.4222 -1.9956 -1.9150
ENERGY: 25000 1568.9001 2361.6404 3196.5774 0.0000 -175337.7086 19835.4634 319.6861 0.0000 31073.9291 -116981.5122 302.1226 -148055.4412 -116932.8072 301.2061 72.0104 -39.2621 499459.3229 -1.1122 -1.4628
TCL: Setting parameter constraintScaling to 0.3125
TCL: Running for 5000 steps
ETITLE: TS BOND ANGLE DIHED IMPRP ELECT VDW BOUNDARY MISC KINETIC TOTAL TEMP POTENTIAL TOTAL3 TEMPAVG PRESSURE GPRESSURE VOLUME PRESSAVG GPRESSAVG
ENERGY: 25000 1568.9001 2361.6404 3196.5774 0.0000 -175337.7086 19835.4634 159.8431 0.0000 31071.8575 -117143.4268 302.1025 -148215.2843 -117098.9982 302.1025 40.7826 -62.6520 499459.3229 40.7826 -62.6520
ENERGY: 26000 1608.1690 2375.0940 3213.2621 0.0000 -175739.5840 20062.7123 240.5697 0.0000 30712.2351 -117527.5417 298.6060 -148239.7768 -117476.0781 299.2997 -82.3151 -21.2487 498894.4950 -3.6347 -3.5576
ENERGY: 27000 1640.5605 2397.5036 3221.1847 0.0000 -175753.3727 20163.7480 239.3387 0.0000 30952.8285 -117138.2088 300.9452 -148091.0373 -117098.5787 300.1368 86.4698 69.1474 500389.0545 11.8451 12.0401
ENERGY: 28000 1619.9313 2425.8489 3220.3526 0.0000 -175180.2634 19779.0069 260.1816 0.0000 30752.8478 -117122.0944 299.0009 -147874.9421 -117073.1509 300.4398 -95.8739 -11.8518 498689.7774 -5.2843 -5.0739
ENERGY: 29000 1594.5455 2333.6589 3231.2673 0.0000 -175634.8054 20115.1227 254.2323 0.0000 31030.5981 -117075.3805 301.7013 -148105.9787 -117033.1438 300.3233 -16.3917 62.7850 497255.5398 -12.6880 -12.8264
ENERGY: 30000 1610.0950 2377.5612 3206.1465 0.0000 -175074.4717 19620.4037 248.7648 0.0000 30671.4281 -117340.0725 298.2092 -148011.5006 -117302.4696 300.3128 10.9747 -5.3446 497321.2166 -10.5641 -10.9530
TCL: Setting parameter constraintScaling to 0.15625
TCL: Running for 5000 steps
ETITLE: TS BOND ANGLE DIHED IMPRP ELECT VDW BOUNDARY MISC KINETIC TOTAL TEMP POTENTIAL TOTAL3 TEMPAVG PRESSURE GPRESSURE VOLUME PRESSAVG GPRESSAVG
ENERGY: 30000 1610.0950 2377.5612 3206.1465 0.0000 -175074.4717 19620.4037 124.3824 0.0000 30669.3943 -117466.4887 298.1895 -148135.8830 -117421.7794 298.1895 -31.1617 -63.1701 497321.2166 -31.1617 -63.1701
ENERGY: 31000 1594.1543 2470.2897 3211.2735 0.0000 -175623.6136 20142.6748 197.4966 0.0000 30836.3439 -117171.3808 299.8127 -148007.7247 -117120.6179 301.4373 2.2459 4.1401 500115.8606 16.4703 15.9003
ENERGY: 32000 1645.0069 2368.2751 3205.3249 0.0000 -175601.2971 19885.0921 202.3802 0.0000 30850.7170 -117444.5009 299.9524 -148295.2179 -117404.7922 299.9865 -30.1088 -12.9709 499160.8385 3.6632 3.7233
ENERGY: 33000 1648.6158 2370.9684 3224.6997 0.0000 -175859.2629 20103.9079 193.4855 0.0000 30684.8703 -117632.7153 298.3399 -148317.5856 -117580.6659 299.1123 -24.5252 14.0618 497469.3825 -1.6189 -1.3688
ENERGY: 34000 1631.4170 2361.4198 3246.0231 0.0000 -175906.7316 20083.4899 201.2161 0.0000 30774.9686 -117608.1971 299.2159 -148383.1657 -117562.2551 299.2459 -221.7185 -156.9264 499390.8856 9.9956 10.7879
ENERGY: 35000 1633.9072 2403.5313 3199.2416 0.0000 -175965.6897 20065.5190 216.7070 0.0000 30572.0810 -117874.7026 297.2433 -148446.7836 -117825.7240 298.8032 -89.8213 -56.1900 498229.9646 -1.6552 -1.8249
TCL: Setting parameter constraintScaling to 0.078125
TCL: Running for 5000 steps
ETITLE: TS BOND ANGLE DIHED IMPRP ELECT VDW BOUNDARY MISC KINETIC TOTAL TEMP POTENTIAL TOTAL3 TEMPAVG PRESSURE GPRESSURE VOLUME PRESSAVG GPRESSAVG
ENERGY: 35000 1633.9072 2403.5313 3199.2416 0.0000 -175965.6897 20065.5190 108.3535 0.0000 30570.0254 -117985.1117 297.2233 -148555.1371 -117944.0679 297.2233 -96.4357 -56.9491 498229.9646 -96.4357 -56.9491
ENERGY: 36000 1660.2731 2385.2889 3203.8639 0.0000 -175849.3214 20058.9656 162.9954 0.0000 30868.3966 -117509.5379 300.1243 -148377.9345 -117462.5609 299.8848 -31.1574 -57.2648 498665.9453 11.7228 11.8245
ENERGY: 37000 1652.2176 2388.8901 3195.1136 0.0000 -175495.5245 20063.8897 149.8822 0.0000 30732.1853 -117313.3460 298.8000 -148045.5313 -117268.7721 300.4016 -93.3982 -40.3352 498433.2877 1.6827 2.1591
ENERGY: 38000 1600.6500 2420.2902 3207.8538 0.0000 -175517.1539 19935.3242 155.2950 0.0000 30880.5371 -117317.2035 300.2423 -148197.7407 -117269.7648 300.3642 61.8716 18.3505 499020.8791 2.1943 1.3298
ENERGY: 39000 1671.5104 2354.3586 3237.5770 0.0000 -175717.3237 19806.0137 169.2907 0.0000 30881.6050 -117596.9683 300.2527 -148478.5733 -117546.2846 299.1809 -17.2079 -30.0032 495821.7750 -16.6302 -16.2158
ENERGY: 40000 1615.7214 2421.7440 3204.1014 0.0000 -175826.0259 20136.4845 149.1115 0.0000 30945.7164 -117353.1467 300.8761 -148298.8631 -117302.5328 300.3329 -107.6082 -68.5873 496475.1034 2.0560 1.7651
TCL: Setting parameter constraintScaling to 0.0390625
TCL: Running for 5000 steps
ETITLE: TS BOND ANGLE DIHED IMPRP ELECT VDW BOUNDARY MISC KINETIC TOTAL TEMP POTENTIAL TOTAL3 TEMPAVG PRESSURE GPRESSURE VOLUME PRESSAVG GPRESSAVG
ENERGY: 40000 1615.7214 2421.7440 3204.1014 0.0000 -175826.0259 20136.4845 74.5558 0.0000 30943.6511 -117429.7678 300.8560 -148373.4188 -117389.5534 300.8560 -109.4177 -74.7767 496475.1034 -109.4177 -74.7767
ENERGY: 41000 1663.1401 2351.3741 3222.0160 0.0000 -175556.3645 19869.2217 105.1396 0.0000 30741.4043 -117604.0687 298.8896 -148345.4730 -117563.9406 300.4654 64.5946 70.2079 494355.7850 -14.8545 -14.8347
ENERGY: 42000 1688.4031 2409.7549 3223.9159 0.0000 -175878.1667 20012.4924 111.2313 0.0000 30874.2217 -117558.1474 300.1809 -148432.3691 -117517.1957 300.5016 -4.4898 -14.6982 495225.5522 -3.3946 -3.2956
ENERGY: 43000 1602.1171 2391.6242 3212.8914 0.0000 -175743.9847 20042.5501 114.9226 0.0000 30869.1975 -117510.6819 300.1321 -148379.8794 -117470.8670 300.0697 20.4519 -17.3712 497439.9737 12.1661 12.0389
ENERGY: 44000 1610.1716 2382.4919 3183.3940 0.0000 -176421.9424 20241.4668 108.3397 0.0000 30853.9238 -118042.1546 299.9836 -148896.0784 -117991.3487 299.3176 -38.2645 -16.0450 497577.8197 7.3026 7.6434
ENERGY: 45000 1625.4931 2398.9452 3194.5791 0.0000 -176024.3709 20247.5045 113.9062 0.0000 30742.7569 -117701.1859 298.9027 -148443.9428 -117663.1242 299.2064 -26.7081 -9.1091 497402.9462 8.0205 7.7203
TCL: Setting parameter constraintScaling to 0.01953125
TCL: Running for 5000 steps
ETITLE: TS BOND ANGLE DIHED IMPRP ELECT VDW BOUNDARY MISC KINETIC TOTAL TEMP POTENTIAL TOTAL3 TEMPAVG PRESSURE GPRESSURE VOLUME PRESSAVG GPRESSAVG
ENERGY: 45000 1625.4931 2398.9452 3194.5791 0.0000 -176024.3709 20247.5045 56.9531 0.0000 30740.6760 -117760.2200 298.8825 -148500.8960 -117718.6945 298.8825 -33.4296 -14.5582 497402.9462 -33.4296 -14.5582
ENERGY: 46000 1675.0287 2389.3790 3203.9101 0.0000 -175998.2366 20065.5349 70.1468 0.0000 30813.3542 -117780.8828 299.5891 -148594.2370 -117735.4069 299.4084 33.5923 60.5727 496320.7416 -8.8536 -8.6813
ENERGY: 47000 1670.3917 2432.9545 3225.5655 0.0000 -175851.3748 20097.4382 77.7909 0.0000 30667.2579 -117679.9761 298.1687 -148347.2340 -117630.4534 300.2454 9.5271 108.9822 497018.4032 5.2331 4.8907
ENERGY: 48000 1619.7523 2408.7770 3209.5857 0.0000 -175848.2170 20026.7261 78.3595 0.0000 30879.4494 -117625.5671 300.2318 -148505.0164 -117588.1071 300.0510 -12.2110 23.3000 497192.5458 -3.1553 -3.3101
ENERGY: 49000 1650.6819 2362.4021 3227.5684 0.0000 -175972.2961 19978.1722 87.7649 0.0000 30772.2511 -117893.4557 299.1895 -148665.7068 -117846.0834 299.4951 -1.4440 43.6920 496578.4954 4.2917 3.8648
ENERGY: 50000 1579.7872 2371.7552 3215.8288 0.0000 -175768.7281 19902.6424 90.1133 0.0000 30743.4062 -117865.1950 298.9091 -148608.6012 -117806.3355 299.7127 -75.0982 -1.8528 496244.7816 -2.9225 -2.8497
TCL: Setting parameter constraintScaling to 0
TCL: Running for 5000 steps
ETITLE: TS BOND ANGLE DIHED IMPRP ELECT VDW BOUNDARY MISC KINETIC TOTAL TEMP POTENTIAL TOTAL3 TEMPAVG PRESSURE GPRESSURE VOLUME PRESSAVG GPRESSAVG
ENERGY: 50000 1579.7872 2371.7552 3215.8288 0.0000 -175768.7281 19902.6424 0.0000 0.0000 30741.3729 -117957.3416 298.8893 -148698.7145 -117911.6210 298.8893 -104.3347 -34.8653 496244.7816 -104.3347 -34.8653
ENERGY: 51000 1666.2899 2469.1016 3199.7436 0.0000 -175803.0937 20109.6197 0.0000 0.0000 30736.2777 -117622.0612 298.8398 -148358.3389 -117574.8633 300.8171 -92.1283 -17.6973 496046.4370 4.5427 4.3766
ENERGY: 52000 1713.8643 2374.0328 3208.4092 0.0000 -176353.2699 20319.1212 0.0000 0.0000 30634.7348 -118103.1077 297.8525 -148737.8425 -118054.1141 299.3542 -89.3567 8.3453 496124.2043 6.0993 5.4260
ENERGY: 53000 1658.0862 2415.6464 3189.5418 0.0000 -176479.7925 20423.9434 0.0000 0.0000 30534.6340 -118257.9407 296.8792 -148792.5747 -118214.5516 298.0575 73.1642 65.4657 496477.3524 -2.5164 -2.1563
ENERGY: 54000 1619.3558 2417.2120 3212.5912 0.0000 -176099.6720 20119.7429 0.0000 0.0000 30733.6718 -117997.0983 298.8144 -148730.7701 -117962.4614 299.5158 26.7180 55.1846 496492.2307 3.0773 3.1647
ENERGY: 55000 1655.5747 2443.9707 3185.2697 0.0000 -176125.0347 20074.1202 0.0000 0.0000 30590.3262 -118175.7731 297.4207 -148766.0993 -118127.2136 298.8597 -45.8081 -35.2876 496097.6430 -1.7512 -1.4894
