Info: SIMULATION PARAMETERS:
Info: TIMESTEP               1
Info: NUMBER OF STEPS        0
Info: STEPS PER CYCLE        10
Info: PERIODIC CELL BASIS 1  72.449 0 0
Info: PERIODIC CELL BASIS 2  0 93.247 0
Info: PERIODIC CELL BASIS 3  0 0 79.185
Info: PERIODIC CELL CENTER   -0.248 -0.156 -0.047
Info: WRAPPING WATERS AROUND PERIODIC BOUNDARIES ON OUTPUT.
Info: WRAPPING ALL CLUSTERS AROUND PERIODIC BOUNDARIES ON OUTPUT.
Info: FIRST LDB TIMESTEP     50
Info: LAST LDB TIMESTEP     -1
Info: HOM BACKGROUND SCALING 1
Info: PME BACKGROUND SCALING 1
Info: MIN ATOMS PER PATCH    40
Info: VELOCITY FILE          ../replicas/rep96/equilibration/eq1.vel
Info: CENTER OF MASS MOVING INITIALLY? NO
Info: DIELECTRIC             1
Info: EXCLUDE                SCALED ONE-FOUR
Info: 1-4 ELECTROSTATICS SCALED BY 0.833333
Info: MODIFIED 1-4 VDW PARAMETERS WILL BE USED
Info: DCD FILENAME           ../replicas/rep96/equilibration/eq2.dcd
Info: DCD FREQUENCY          5000
Info: DCD FIRST STEP         5000
Info: DCD FILE WILL CONTAIN UNIT CELL DATA
Info: XST FILENAME           ../replicas/rep96/equilibration/eq2.xst
Info: XST FREQUENCY          5000
Info: NO VELOCITY DCD OUTPUT
Info: NO FORCE DCD OUTPUT
Info: OUTPUT FILENAME        ../replicas/rep96/equilibration/eq2
Info: RESTART FILENAME       ../replicas/rep96/equilibration/eq2.restart
Info: RESTART FREQUENCY      5000
Info: BINARY RESTART FILES WILL BE USED
Info: SWITCHING ACTIVE
Info: SWITCHING ON           10
Info: SWITCHING OFF          12
Info: PAIRLIST DISTANCE      13.5
Info: PAIRLIST SHRINK RATE   0.01
Info: PAIRLIST GROW RATE     0.01
Info: PAIRLIST TRIGGER       0.3
Info: PAIRLISTS PER CYCLE    2
Info: PAIRLISTS ENABLED
Info: MARGIN                 0.48
Info: HYDROGEN GROUP CUTOFF  2.5
Info: PATCH DIMENSION        16.48
Info: ENERGY OUTPUT STEPS    500
Info: CROSSTERM ENERGY INCLUDED IN DIHEDRAL
Info: TIMING OUTPUT STEPS    5000
Info: PRESSURE OUTPUT STEPS  500
Info: HARMONIC CONSTRAINTS ACTIVE
Info: HARMONIC CONS EXP      2
Info: HARMONIC CONS SCALING  10
Info: LANGEVIN DYNAMICS ACTIVE
Info: LANGEVIN TEMPERATURE   300
Info: LANGEVIN USING BBK INTEGRATOR
Info: LANGEVIN DAMPING COEFFICIENT IS 5 INVERSE PS
Info: LANGEVIN DYNAMICS NOT APPLIED TO HYDROGENS
Info: BERENDSEN PRESSURE COUPLING ACTIVE
Info:     TARGET PRESSURE IS 1 BAR
Info:     COMPRESSIBILITY ESTIMATE IS 4.57e-05 BAR^(-1)
Info:     RELAXATION TIME IS 100 FS
Info:     APPLIED EVERY 2 STEPS
Info:     PRESSURE CONTROL IS GROUP-BASED
Info:       CELL FLUCTUATION IS ISOTROPIC
Info: PARTICLE MESH EWALD (PME) ACTIVE
Info: PME TOLERANCE               1e-06
Info: PME EWALD COEFFICIENT       0.257952
Info: PME INTERPOLATION ORDER     4
Info: PME GRID DIMENSIONS         80 96 80
Info: PME MAXIMUM GRID SPACING    1
Info: FULL ELECTROSTATIC EVALUATION FREQUENCY      2
Info: USING VERLET I (r-RESPA) MTS SCHEME.
Info: C1 SPLITTING OF LONG RANGE ELECTROSTATICS
Info: PLACING ATOMS IN PATCHES BY HYDROGEN GROUPS
Info: RIGID BONDS TO HYDROGEN : WATER
Info:         ERROR TOLERANCE : 1e-05
Info:          MAX ITERATIONS : 100
Info: RIGID WATER USING SETTLE ALGORITHM
Info: RANDOM NUMBER SEED     1503701339
Info: USE HYDROGEN BONDS?    NO
Info: Using AMBER format force field!
Info: AMBER PARM FILE        ../build/complex.top
Info: COORDINATE PDB         ../replicas/rep96/equilibration/eq1.coor
Info: Exclusions in PARM file will be ignored!
Info: SCNB (VDW SCALING)     2
Info: USING ARITHMETIC MEAN TO COMBINE L-J SIGMA PARAMETERS
Info: SUMMARY OF PARAMETERS:
Info: 71 BONDS
Info: 145 ANGLES
Info: 76 DIHEDRAL
Info: 0 IMPROPER
Info: 0 CROSSTERM
Info: 0 VDW
Info: 190 VDW_PAIRS
Info: 0 NBTHOLE_PAIRS
Info: STRUCTURE SUMMARY:
Info: 49394 ATOMS
Info: 49448 BONDS
Info: 8698 ANGLES
Info: 18780 DIHEDRALS
Info: 0 IMPROPERS
Info: 0 CROSSTERMS
Info: 0 EXCLUSIONS
Info: 2336 CONSTRAINTS
Info: 44667 RIGID BONDS
Info: 103515 DEGREES OF FREEDOM
Info: 17225 HYDROGEN GROUPS
Info: 4 ATOMS IN LARGEST HYDROGEN GROUP
Info: 17225 MIGRATION GROUPS
Info: 4 ATOMS IN LARGEST MIGRATION GROUP
Info: TOTAL MASS = 301478 amu
Info: TOTAL CHARGE = 1.00115e-05 e
Info: MASS DENSITY = 0.935846 g/cm^3
Info: ATOM DENSITY = 0.0923345 atoms/A^3
Info: ADDED 70656 IMPLICIT EXCLUSIONS
Info: NONBONDED TABLE R-SQUARED SPACING: 0.0625
Info: NONBONDED TABLE SIZE: 769 POINTS
Info: REMOVING COM VELOCITY 0.0103501 -0.00862875 -0.0409902
TCL: Running for 5000 steps
ETITLE: TS BOND ANGLE DIHED IMPRP ELECT VDW BOUNDARY MISC KINETIC TOTAL TEMP POTENTIAL TOTAL3 TEMPAVG PRESSURE GPRESSURE VOLUME PRESSAVG GPRESSAVG
ENERGY: 0 397.7640 1220.5899 2905.3267 0.0000 -212624.2452 29451.9466 0.0000 0.0000 10045.9917 -168602.6264 97.6742 -178648.6181 -168593.0678 97.6742 -2449.9250 -2550.9635 534946.2959 -2449.9250 -2550.9635
ENERGY: 1000 1267.8324 1924.2772 3108.6179 0.0000 -193484.7629 26338.5104 799.5168 0.0000 24071.7019 -135974.3063 234.0421 -160046.0082 -135952.2239 217.7221 -2.9245 -55.0711 520866.8042 -21.8511 -22.3595
ENERGY: 2000 1477.1804 2150.9332 3136.4278 0.0000 -183716.7020 22930.9635 781.6686 0.0000 27858.0827 -125381.4458 270.8559 -153239.5285 -125349.4237 264.4115 -1.5580 -20.0199 513609.8364 -33.9653 -34.2536
ENERGY: 3000 1529.6180 2177.7489 3145.9399 0.0000 -179193.6937 21554.5890 823.9031 0.0000 29778.5116 -120183.3831 289.5277 -149961.8947 -120136.1560 284.4722 -12.9584 15.0783 508817.9501 -21.2495 -21.2832
ENERGY: 4000 1569.1438 2188.5012 3147.5357 0.0000 -176722.4069 20598.6055 821.0993 0.0000 30371.6481 -118025.8733 295.2946 -148397.5214 -117983.8119 293.1152 -35.8957 -17.5136 507181.9105 1.7986 2.7781
ENERGY: 5000 1603.6160 2270.8397 3154.7407 0.0000 -176100.4167 20684.6085 801.4308 0.0000 30354.5123 -117230.6688 295.1280 -147585.1811 -117190.9155 296.5489 -83.3002 -3.6713 507628.9275 11.2642 11.5441
TCL: Setting parameter constraintScaling to 5.0
TCL: Running for 5000 steps
ETITLE: TS BOND ANGLE DIHED IMPRP ELECT VDW BOUNDARY MISC KINETIC TOTAL TEMP POTENTIAL TOTAL3 TEMPAVG PRESSURE GPRESSURE VOLUME PRESSAVG GPRESSAVG
ENERGY: 5000 1603.6160 2270.8397 3154.7407 0.0000 -176100.4167 20684.6085 400.7154 0.0000 30352.4465 -117633.4500 295.1079 -147985.8965 -117590.5058 295.1079 -126.4234 -42.5349 507628.9275 -126.4234 -42.5349
ENERGY: 6000 1615.3692 2268.9249 3157.9523 0.0000 -175913.3074 20560.9192 657.1273 0.0000 30817.4367 -116835.5777 299.6288 -147653.0144 -116790.9870 299.0313 58.4165 21.0942 506499.9739 3.3979 2.8813
ENERGY: 7000 1598.9490 2277.1591 3172.3844 0.0000 -175252.8941 20256.1999 645.5010 0.0000 30768.7147 -116533.9860 299.1551 -147302.7006 -116488.2801 299.4377 -2.5543 -45.6660 505941.3619 -4.9562 -4.3296
ENERGY: 8000 1619.7368 2308.3594 3176.7090 0.0000 -175568.3516 20197.4116 664.6843 0.0000 30888.0564 -116713.3941 300.3155 -147601.4505 -116674.3886 299.3601 -63.9058 -9.3205 502438.2264 -19.9559 -19.9949
ENERGY: 9000 1601.6398 2286.9295 3145.3630 0.0000 -175669.0360 20160.0979 609.5859 0.0000 30618.0079 -117247.4120 297.6899 -147865.4199 -117206.7849 298.6731 -88.2439 -13.6422 503096.8518 2.7529 2.6580
ENERGY: 10000 1604.8861 2294.9172 3151.7118 0.0000 -175059.3407 19993.3149 647.3707 0.0000 30810.3359 -116556.8041 299.5598 -147367.1400 -116508.4035 300.1857 -33.1206 23.6131 503014.8893 -2.1822 -2.7402
TCL: Setting parameter constraintScaling to 2.5
TCL: Running for 5000 steps
ETITLE: TS BOND ANGLE DIHED IMPRP ELECT VDW BOUNDARY MISC KINETIC TOTAL TEMP POTENTIAL TOTAL3 TEMPAVG PRESSURE GPRESSURE VOLUME PRESSAVG GPRESSAVG
ENERGY: 10000 1604.8861 2294.9172 3151.7118 0.0000 -175059.3407 19993.3149 323.6854 0.0000 30808.3083 -116882.5171 299.5401 -147690.8254 -116837.2054 299.5401 -79.0393 -20.0762 503014.8893 -79.0393 -20.0762
ENERGY: 11000 1649.1020 2356.7201 3172.4689 0.0000 -175258.3507 19879.8924 505.2990 0.0000 30934.9513 -116759.9169 300.7714 -147694.8682 -116707.4572 300.3526 -91.7867 0.8541 501087.0905 -1.9383 -1.8110
ENERGY: 12000 1595.5173 2353.6084 3182.2572 0.0000 -175502.7178 19997.6268 504.7656 0.0000 30728.7249 -117140.2175 298.7663 -147868.9424 -117094.1395 298.9457 -0.2257 18.1614 500764.6977 2.0832 1.7319
ENERGY: 13000 1652.6243 2326.7671 3187.2009 0.0000 -175606.5024 20320.6911 512.3335 0.0000 30817.5021 -116789.3833 299.6295 -147606.8854 -116755.6340 300.8207 -64.3427 49.0189 500525.2733 -2.6384 -2.1919
ENERGY: 14000 1687.7433 2355.8053 3201.0643 0.0000 -175490.5557 20078.4654 525.0401 0.0000 30757.7092 -116884.7281 299.0481 -147642.4373 -116837.6223 299.8124 15.8631 -33.4260 499962.7016 -2.4161 -2.5611
ENERGY: 15000 1588.5014 2355.2555 3152.8930 0.0000 -175508.5102 20022.9775 497.4555 0.0000 30809.6267 -117081.8007 299.5529 -147891.4274 -117028.0241 300.5220 -3.9789 55.7234 499992.9128 9.0381 9.1776
TCL: Setting parameter constraintScaling to 1.25
TCL: Running for 5000 steps
ETITLE: TS BOND ANGLE DIHED IMPRP ELECT VDW BOUNDARY MISC KINETIC TOTAL TEMP POTENTIAL TOTAL3 TEMPAVG PRESSURE GPRESSURE VOLUME PRESSAVG GPRESSAVG
ENERGY: 15000 1588.5014 2355.2555 3152.8930 0.0000 -175508.5102 20022.9775 248.7277 0.0000 30807.5617 -117332.5934 299.5328 -148140.1551 -117287.8853 299.5328 -125.9936 -54.1173 499992.9128 -125.9936 -54.1173
ENERGY: 16000 1634.8100 2365.3824 3190.1706 0.0000 -175950.7210 20291.8020 394.7946 0.0000 30504.8930 -117568.8684 296.5901 -148073.7614 -117520.5093 298.7586 23.0556 38.9682 500060.1369 -3.1968 -3.2946
ENERGY: 17000 1626.3205 2328.3449 3204.5957 0.0000 -175954.5781 20281.5941 403.6177 0.0000 30869.6020 -117240.5032 300.1360 -148110.1051 -117196.7564 299.9515 -12.1043 6.3492 500129.0318 -5.5070 -5.2725
ENERGY: 18000 1622.3354 2353.9443 3188.4749 0.0000 -175841.6639 20037.7514 419.1551 0.0000 30880.9448 -117339.0580 300.2463 -148220.0028 -117291.1354 298.2289 -115.0333 -96.2658 499604.5003 -6.4427 -6.3130
ENERGY: 19000 1582.3612 2388.6005 3179.6599 0.0000 -175797.2338 20116.0813 407.8224 0.0000 30577.7134 -117544.9950 297.2981 -148122.7084 -117499.0596 298.7588 -10.0675 43.0408 498600.9664 -0.0271 0.6035
ENERGY: 20000 1571.8327 2376.2034 3172.6998 0.0000 -175418.7504 19843.8728 410.1459 0.0000 30757.2541 -117286.7419 299.0437 -148043.9959 -117235.5767 298.4180 -63.4953 -5.2747 498066.6860 -3.7114 -3.9520
TCL: Setting parameter constraintScaling to 0.625
TCL: Running for 5000 steps
ETITLE: TS BOND ANGLE DIHED IMPRP ELECT VDW BOUNDARY MISC KINETIC TOTAL TEMP POTENTIAL TOTAL3 TEMPAVG PRESSURE GPRESSURE VOLUME PRESSAVG GPRESSAVG
ENERGY: 20000 1571.8327 2376.2034 3172.6998 0.0000 -175418.7504 19843.8728 205.0729 0.0000 30755.2010 -117493.8678 299.0237 -148249.0689 -117450.1103 299.0237 -56.1083 -10.5366 498066.6860 -56.1083 -10.5366
ENERGY: 21000 1582.8992 2328.3328 3210.2376 0.0000 -175480.4921 19996.0912 309.4933 0.0000 30937.2962 -117116.1417 300.7942 -148053.4379 -117073.5440 300.4266 -43.4025 -1.2446 498737.8234 2.5375 2.6214
ENERGY: 22000 1646.2617 2393.4456 3182.8177 0.0000 -175471.6987 19831.3564 310.5489 0.0000 30783.8261 -117323.4423 299.3021 -148107.2684 -117284.2004 299.6980 -56.2800 17.0309 497073.8499 -7.5978 -7.2529
ENERGY: 23000 1648.5240 2412.3335 3210.8299 0.0000 -175705.1041 19943.1797 314.3473 0.0000 30898.0804 -117277.8092 300.4129 -148175.8896 -117241.4150 299.4914 -86.4686 -36.9175 498760.4314 3.8638 4.2181
ENERGY: 24000 1702.8420 2410.0606 3204.8589 0.0000 -175803.1990 20071.1047 336.1875 0.0000 30764.9344 -117313.2110 299.1184 -148078.1454 -117280.5273 300.1980 -221.5199 -106.3878 498785.5719 8.8112 8.6655
ENERGY: 25000 1673.7531 2437.2890 3220.1940 0.0000 -175925.1670 19912.6417 336.1784 0.0000 31139.7046 -117205.4062 302.7622 -148345.1108 -117171.5619 299.9389 -167.4992 -71.4698 497742.0596 -2.1184 -1.8811
TCL: Setting parameter constraintScaling to 0.3125
TCL: Running for 5000 steps
ETITLE: TS BOND ANGLE DIHED IMPRP ELECT VDW BOUNDARY MISC KINETIC TOTAL TEMP POTENTIAL TOTAL3 TEMPAVG PRESSURE GPRESSURE VOLUME PRESSAVG GPRESSAVG
ENERGY: 25000 1673.7531 2437.2890 3220.1940 0.0000 -175925.1670 19912.6417 168.0892 0.0000 31137.6648 -117375.5352 302.7423 -148513.2000 -117336.0499 302.7423 -230.9242 -136.2033 497742.0596 -230.9242 -136.2033
ENERGY: 26000 1684.9487 2437.5018 3206.3114 0.0000 -175913.2054 20267.5656 246.8196 0.0000 30733.4285 -117336.6298 298.8121 -148070.0583 -117288.8384 300.2801 -13.0194 31.5913 498369.2673 10.4079 10.0312
ENERGY: 27000 1654.5920 2446.1348 3183.9327 0.0000 -176240.4615 20263.2112 268.2024 0.0000 31081.4480 -117342.9404 302.1957 -148424.3884 -117301.6963 300.1018 14.9074 19.5436 497884.0495 -3.4217 -3.1280
ENERGY: 28000 1593.9374 2431.8672 3247.5564 0.0000 -176265.4833 20306.5978 259.6621 0.0000 30916.8837 -117508.9787 300.5957 -148425.8624 -117461.1891 300.3716 9.8999 72.8164 497040.9282 -6.0728 -5.7219
ENERGY: 29000 1615.2474 2376.3737 3177.3992 0.0000 -176121.3777 20307.5877 253.3347 0.0000 30785.7950 -117605.6402 299.3212 -148391.4351 -117556.0079 298.6587 -40.7307 -6.7321 499174.1387 7.2421 6.7011
ENERGY: 30000 1632.9614 2386.4020 3196.7457 0.0000 -175219.4450 19726.1461 245.7708 0.0000 30771.1314 -117260.2876 299.1786 -148031.4190 -117216.7236 300.6147 -70.7153 -6.7315 499335.0901 -7.1837 -7.3788
TCL: Setting parameter constraintScaling to 0.15625
TCL: Running for 5000 steps
ETITLE: TS BOND ANGLE DIHED IMPRP ELECT VDW BOUNDARY MISC KINETIC TOTAL TEMP POTENTIAL TOTAL3 TEMPAVG PRESSURE GPRESSURE VOLUME PRESSAVG GPRESSAVG
ENERGY: 30000 1632.9614 2386.4020 3196.7457 0.0000 -175219.4450 19726.1461 122.8854 0.0000 30769.0618 -117385.2426 299.1585 -148154.3044 -117340.3962 299.1585 -150.0792 -79.3089 499335.0901 -150.0792 -79.3089
ENERGY: 31000 1601.0005 2352.2114 3243.9254 0.0000 -175502.2245 19924.5101 188.1178 0.0000 30801.0274 -117391.4318 299.4693 -148192.4592 -117346.1147 299.3453 -58.1907 -10.8869 498889.3527 -1.8381 -2.0529
ENERGY: 32000 1607.4529 2443.2091 3218.0547 0.0000 -175745.9068 20128.5715 193.6988 0.0000 30700.2943 -117454.6255 298.4899 -148154.9198 -117407.9799 300.8046 11.6651 94.5779 498611.1519 10.0122 9.6604
ENERGY: 33000 1700.4593 2382.6732 3186.7337 0.0000 -175654.3916 20091.5660 201.4456 0.0000 30890.8809 -117200.6331 300.3429 -148091.5139 -117158.9462 299.9850 -98.0317 -75.4488 497212.3843 -11.5371 -12.0902
ENERGY: 34000 1644.2883 2382.8007 3184.3564 0.0000 -175429.4794 19942.8085 197.4230 0.0000 30793.1723 -117284.6302 299.3929 -148077.8024 -117239.0407 300.6052 3.7825 71.7212 497590.8964 8.6931 9.3504
ENERGY: 35000 1690.6264 2361.4120 3224.2773 0.0000 -176217.2650 20192.7537 214.0951 0.0000 30823.5126 -117710.5879 299.6879 -148534.1005 -117675.9126 299.1677 -53.1925 21.0987 496839.0828 4.7025 5.5527
TCL: Setting parameter constraintScaling to 0.078125
TCL: Running for 5000 steps
ETITLE: TS BOND ANGLE DIHED IMPRP ELECT VDW BOUNDARY MISC KINETIC TOTAL TEMP POTENTIAL TOTAL3 TEMPAVG PRESSURE GPRESSURE VOLUME PRESSAVG GPRESSAVG
ENERGY: 35000 1690.6264 2361.4120 3224.2773 0.0000 -176217.2650 20192.7537 107.0476 0.0000 30821.4761 -117819.6720 299.6681 -148641.1481 -117774.4780 299.6681 -49.7768 24.3053 496839.0828 -49.7768 24.3053
ENERGY: 36000 1625.4495 2429.2243 3245.7551 0.0000 -176034.0831 20268.0029 151.4738 0.0000 30634.5351 -117679.6423 297.8505 -148314.1774 -117630.6584 298.8970 -44.7949 1.3265 498340.8957 14.3509 14.4124
ENERGY: 37000 1601.5225 2433.9250 3258.2210 0.0000 -175521.8564 19877.2839 158.6701 0.0000 30853.2953 -117338.9386 299.9775 -148192.2339 -117287.1324 298.5972 5.2615 21.2928 497475.7866 -2.5680 -2.4507
ENERGY: 38000 1638.5778 2432.8986 3230.1352 0.0000 -175647.5794 20043.5696 161.6283 0.0000 30622.8072 -117517.9627 297.7365 -148140.7699 -117479.5211 299.7589 12.8883 61.4206 497949.2307 -3.0723 -3.2119
ENERGY: 39000 1671.3426 2427.5919 3249.7831 0.0000 -176020.4040 20182.8601 166.8408 0.0000 30784.3233 -117537.6622 299.3069 -148321.9855 -117493.6909 299.8930 -38.5831 -6.0353 497305.1683 -1.4080 -1.3094
ENERGY: 40000 1666.7728 2393.9603 3213.1620 0.0000 -175787.2919 20090.2428 162.3604 0.0000 30801.9467 -117458.8468 299.4782 -148260.7936 -117410.4364 299.0885 25.9112 -34.5620 496530.7435 -0.1707 -0.6446
TCL: Setting parameter constraintScaling to 0.0390625
TCL: Running for 5000 steps
ETITLE: TS BOND ANGLE DIHED IMPRP ELECT VDW BOUNDARY MISC KINETIC TOTAL TEMP POTENTIAL TOTAL3 TEMPAVG PRESSURE GPRESSURE VOLUME PRESSAVG GPRESSAVG
ENERGY: 40000 1666.7728 2393.9603 3213.1620 0.0000 -175787.2919 20090.2428 81.1802 0.0000 30799.9170 -117542.0568 299.4585 -148341.9738 -117497.4159 299.4585 13.9974 -48.6254 496530.7435 13.9974 -48.6254
ENERGY: 41000 1640.5227 2407.6814 3201.8645 0.0000 -176120.2736 20218.0857 112.1651 0.0000 30626.5393 -117913.4149 297.7728 -148539.9541 -117874.9689 298.8615 -120.8978 23.9301 496098.9009 -4.3195 -4.5777
ENERGY: 42000 1643.6847 2434.5906 3192.9819 0.0000 -176187.9658 20233.0758 130.1669 0.0000 30736.6705 -117816.7953 298.8436 -148553.4659 -117755.0884 299.0060 94.8980 87.3949 497754.5716 14.3429 13.4602
ENERGY: 43000 1647.3013 2359.1673 3242.4541 0.0000 -176009.2774 20109.0996 123.0200 0.0000 31144.0488 -117384.1863 302.8044 -148528.2351 -117338.0100 299.5563 -47.4063 -94.0667 497429.0291 -2.0666 -1.6347
ENERGY: 44000 1646.9015 2397.5131 3189.4648 0.0000 -175287.7652 19822.8735 132.5692 0.0000 30794.1250 -117304.3181 299.4022 -148098.4431 -117245.5033 300.8145 -102.0485 -27.6131 496104.0959 -0.7912 -0.5377
ENERGY: 45000 1632.3914 2372.6105 3186.4933 0.0000 -175966.6819 20210.1276 140.3219 0.0000 31134.4236 -117290.3137 302.7108 -148424.7373 -117250.8673 301.7200 -8.3313 33.8754 496728.2416 -2.2154 -2.1748
TCL: Setting parameter constraintScaling to 0.01953125
TCL: Running for 5000 steps
ETITLE: TS BOND ANGLE DIHED IMPRP ELECT VDW BOUNDARY MISC KINETIC TOTAL TEMP POTENTIAL TOTAL3 TEMPAVG PRESSURE GPRESSURE VOLUME PRESSAVG GPRESSAVG
ENERGY: 45000 1632.3914 2372.6105 3186.4933 0.0000 -175966.6819 20210.1276 70.1610 0.0000 31132.3889 -117362.5094 302.6910 -148494.8983 -117319.3748 302.6910 -6.0872 33.4510 496728.2416 -6.0872 33.4510
ENERGY: 46000 1622.9858 2420.6059 3178.2443 0.0000 -175692.1852 19986.7085 84.7600 0.0000 30714.0422 -117684.8385 298.6236 -148398.8806 -117639.4608 300.4067 -144.8243 -114.4544 497992.9525 4.4260 4.0409
ENERGY: 47000 1593.6555 2404.4513 3207.9192 0.0000 -176457.7481 20234.8690 88.9450 0.0000 30804.3555 -118123.5527 299.5017 -148927.9082 -118071.4892 298.4472 -173.6033 -36.4670 496122.2868 -18.7795 -18.4229
ENERGY: 48000 1575.6583 2319.8820 3193.8499 0.0000 -175923.2096 20022.4033 90.3532 0.0000 30949.5263 -117771.5367 300.9131 -148721.0630 -117723.7185 299.4702 -53.4550 -22.9037 498049.1688 8.1829 8.3712
ENERGY: 49000 1602.4059 2382.6323 3177.5831 0.0000 -176218.8548 20310.2719 92.4505 0.0000 30689.8569 -117963.6541 298.3884 -148653.5110 -117918.6727 299.6659 91.4604 38.6900 496264.9327 -11.7204 -12.3861
ENERGY: 50000 1577.7587 2355.2007 3199.5781 0.0000 -175875.2529 19925.9218 98.3842 0.0000 30891.6551 -117826.7542 300.3504 -148718.4094 -117777.6658 299.4364 -97.6953 -35.8571 496625.9009 -0.9347 -0.9940
TCL: Setting parameter constraintScaling to 0
TCL: Running for 5000 steps
ETITLE: TS BOND ANGLE DIHED IMPRP ELECT VDW BOUNDARY MISC KINETIC TOTAL TEMP POTENTIAL TOTAL3 TEMPAVG PRESSURE GPRESSURE VOLUME PRESSAVG GPRESSAVG
ENERGY: 50000 1577.7587 2355.2007 3199.5781 0.0000 -175875.2529 19925.9218 0.0000 0.0000 30889.5840 -117927.2095 300.3303 -148816.7935 -117882.6115 300.3303 -111.2781 -55.5043 496625.9009 -111.2781 -55.5043
ENERGY: 51000 1621.0546 2375.2286 3200.2495 0.0000 -175755.5032 19922.1249 0.0000 0.0000 30940.1027 -117696.7429 300.8215 -148636.8456 -117659.1634 299.7416 24.9973 66.2618 496527.8792 0.9383 1.4107
ENERGY: 52000 1585.2025 2407.2839 3191.7259 0.0000 -175397.1597 19837.6837 0.0000 0.0000 30732.0498 -117643.2139 298.7986 -148375.2637 -117591.9205 300.2262 -0.4622 -18.5003 496561.5023 1.9942 1.7596
ENERGY: 53000 1655.1232 2398.5763 3227.2932 0.0000 -175805.5620 19857.3003 0.0000 0.0000 30708.7902 -117958.4787 298.5725 -148667.2689 -117919.9633 299.9859 -76.6996 -37.8070 494822.6626 -18.5553 -18.7092
ENERGY: 54000 1604.9771 2442.1215 3212.7396 0.0000 -175722.5955 19958.1368 0.0000 0.0000 31000.8193 -117503.8011 301.4118 -148504.6205 -117469.0284 300.9539 11.5403 73.1084 496467.2337 8.9969 8.9044
ENERGY: 55000 1658.9926 2375.1089 3196.1774 0.0000 -176049.1079 20090.7433 0.0000 0.0000 30970.7053 -117757.3804 301.1190 -148728.0857 -117704.0725 299.6361 -19.6193 19.5104 496833.0038 4.4773 4.4959
