Info: SIMULATION PARAMETERS:
Info: TIMESTEP               1
Info: NUMBER OF STEPS        0
Info: STEPS PER CYCLE        10
Info: PERIODIC CELL BASIS 1  72.449 0 0
Info: PERIODIC CELL BASIS 2  0 93.247 0
Info: PERIODIC CELL BASIS 3  0 0 79.185
Info: PERIODIC CELL CENTER   -0.248 -0.156 -0.047
Info: WRAPPING WATERS AROUND PERIODIC BOUNDARIES ON OUTPUT.
Info: WRAPPING ALL CLUSTERS AROUND PERIODIC BOUNDARIES ON OUTPUT.
Info: FIRST LDB TIMESTEP     50
Info: LAST LDB TIMESTEP     -1
Info: HOM BACKGROUND SCALING 1
Info: PME BACKGROUND SCALING 1
Info: MIN ATOMS PER PATCH    40
Info: VELOCITY FILE          ../replicas/rep1/equilibration/eq1.vel
Info: CENTER OF MASS MOVING INITIALLY? NO
Info: DIELECTRIC             1
Info: EXCLUDE                SCALED ONE-FOUR
Info: 1-4 ELECTROSTATICS SCALED BY 0.833333
Info: MODIFIED 1-4 VDW PARAMETERS WILL BE USED
Info: DCD FILENAME           ../replicas/rep1/equilibration/eq2.dcd
Info: DCD FREQUENCY          5000
Info: DCD FIRST STEP         5000
Info: DCD FILE WILL CONTAIN UNIT CELL DATA
Info: XST FILENAME           ../replicas/rep1/equilibration/eq2.xst
Info: XST FREQUENCY          5000
Info: NO VELOCITY DCD OUTPUT
Info: NO FORCE DCD OUTPUT
Info: OUTPUT FILENAME        ../replicas/rep1/equilibration/eq2
Info: RESTART FILENAME       ../replicas/rep1/equilibration/eq2.restart
Info: RESTART FREQUENCY      5000
Info: BINARY RESTART FILES WILL BE USED
Info: SWITCHING ACTIVE
Info: SWITCHING ON           10
Info: SWITCHING OFF          12
Info: PAIRLIST DISTANCE      13.5
Info: PAIRLIST SHRINK RATE   0.01
Info: PAIRLIST GROW RATE     0.01
Info: PAIRLIST TRIGGER       0.3
Info: PAIRLISTS PER CYCLE    2
Info: PAIRLISTS ENABLED
Info: MARGIN                 0.48
Info: HYDROGEN GROUP CUTOFF  2.5
Info: PATCH DIMENSION        16.48
Info: ENERGY OUTPUT STEPS    500
Info: CROSSTERM ENERGY INCLUDED IN DIHEDRAL
Info: TIMING OUTPUT STEPS    5000
Info: PRESSURE OUTPUT STEPS  500
Info: HARMONIC CONSTRAINTS ACTIVE
Info: HARMONIC CONS EXP      2
Info: HARMONIC CONS SCALING  10
Info: LANGEVIN DYNAMICS ACTIVE
Info: LANGEVIN TEMPERATURE   300
Info: LANGEVIN USING BBK INTEGRATOR
Info: LANGEVIN DAMPING COEFFICIENT IS 5 INVERSE PS
Info: LANGEVIN DYNAMICS NOT APPLIED TO HYDROGENS
Info: BERENDSEN PRESSURE COUPLING ACTIVE
Info:     TARGET PRESSURE IS 1 BAR
Info:     COMPRESSIBILITY ESTIMATE IS 4.57e-05 BAR^(-1)
Info:     RELAXATION TIME IS 100 FS
Info:     APPLIED EVERY 2 STEPS
Info:     PRESSURE CONTROL IS GROUP-BASED
Info:       CELL FLUCTUATION IS ISOTROPIC
Info: PARTICLE MESH EWALD (PME) ACTIVE
Info: PME TOLERANCE               1e-06
Info: PME EWALD COEFFICIENT       0.257952
Info: PME INTERPOLATION ORDER     4
Info: PME GRID DIMENSIONS         80 96 80
Info: PME MAXIMUM GRID SPACING    1
Info: FULL ELECTROSTATIC EVALUATION FREQUENCY      2
Info: USING VERLET I (r-RESPA) MTS SCHEME.
Info: C1 SPLITTING OF LONG RANGE ELECTROSTATICS
Info: PLACING ATOMS IN PATCHES BY HYDROGEN GROUPS
Info: RIGID BONDS TO HYDROGEN : WATER
Info:         ERROR TOLERANCE : 1e-05
Info:          MAX ITERATIONS : 100
Info: RIGID WATER USING SETTLE ALGORITHM
Info: RANDOM NUMBER SEED     1503267828
Info: USE HYDROGEN BONDS?    NO
Info: Using AMBER format force field!
Info: AMBER PARM FILE        ../build/complex.top
Info: COORDINATE PDB         ../replicas/rep1/equilibration/eq1.coor
Info: Exclusions in PARM file will be ignored!
Info: SCNB (VDW SCALING)     2
Info: USING ARITHMETIC MEAN TO COMBINE L-J SIGMA PARAMETERS
Info: SUMMARY OF PARAMETERS:
Info: 71 BONDS
Info: 145 ANGLES
Info: 76 DIHEDRAL
Info: 0 IMPROPER
Info: 0 CROSSTERM
Info: 0 VDW
Info: 190 VDW_PAIRS
Info: 0 NBTHOLE_PAIRS
Info: STRUCTURE SUMMARY:
Info: 49394 ATOMS
Info: 49448 BONDS
Info: 8698 ANGLES
Info: 18780 DIHEDRALS
Info: 0 IMPROPERS
Info: 0 CROSSTERMS
Info: 0 EXCLUSIONS
Info: 2336 CONSTRAINTS
Info: 44667 RIGID BONDS
Info: 103515 DEGREES OF FREEDOM
Info: 17225 HYDROGEN GROUPS
Info: 4 ATOMS IN LARGEST HYDROGEN GROUP
Info: 17225 MIGRATION GROUPS
Info: 4 ATOMS IN LARGEST MIGRATION GROUP
Info: TOTAL MASS = 301478 amu
Info: TOTAL CHARGE = 1.00115e-05 e
Info: MASS DENSITY = 0.935846 g/cm^3
Info: ATOM DENSITY = 0.0923345 atoms/A^3
Info: ADDED 70656 IMPLICIT EXCLUSIONS
Info: NONBONDED TABLE R-SQUARED SPACING: 0.0625
Info: NONBONDED TABLE SIZE: 769 POINTS
Info: REMOVING COM VELOCITY 0.0206052 -0.0250615 -0.0204523
TCL: Running for 5000 steps
ETITLE: TS BOND ANGLE DIHED IMPRP ELECT VDW BOUNDARY MISC KINETIC TOTAL TEMP POTENTIAL TOTAL3 TEMPAVG PRESSURE GPRESSURE VOLUME PRESSAVG GPRESSAVG
ENERGY: 0 375.3340 1201.0229 2914.7739 0.0000 -212888.9508 29657.2687 0.0000 0.0000 10031.5228 -168709.0284 97.5335 -178740.5513 -168699.5109 97.5335 -2382.6355 -2482.9688 534946.2959 -2382.6355 -2482.9688
ENERGY: 1000 1237.6843 2009.0776 3099.6295 0.0000 -193524.1025 26374.0063 765.4132 0.0000 24380.0766 -135658.2149 237.0403 -160038.2915 -135634.2377 219.6384 -9.4503 -31.2558 522966.7946 -16.9671 -17.2130
ENERGY: 2000 1399.3553 2176.7695 3172.0777 0.0000 -183913.2095 23163.6225 796.8146 0.0000 27752.6053 -125451.9646 269.8304 -153204.5699 -125424.1055 264.0601 -35.2718 -1.6866 517698.5476 -19.0599 -19.0008
ENERGY: 3000 1525.2685 2230.5384 3116.7168 0.0000 -179532.0685 21773.9674 815.2849 0.0000 29468.3057 -120601.9867 286.5116 -150070.2924 -120563.8170 284.0743 12.5900 -18.5916 511507.8900 -22.6320 -22.7495
ENERGY: 4000 1522.1349 2183.3568 3120.5269 0.0000 -176609.3928 20616.2533 803.3636 0.0000 30211.4107 -118152.3468 293.7366 -148363.7575 -118111.2066 292.0016 -124.0417 -32.0547 509857.7433 0.8188 1.3057
ENERGY: 5000 1529.4567 2205.3250 3147.5364 0.0000 -175770.5719 20321.0271 805.1180 0.0000 30814.0666 -116948.0421 299.5961 -147762.1087 -116906.2068 297.3080 -58.3926 -12.3091 505995.1205 -3.0407 -2.6567
TCL: Setting parameter constraintScaling to 5.0
TCL: Running for 5000 steps
ETITLE: TS BOND ANGLE DIHED IMPRP ELECT VDW BOUNDARY MISC KINETIC TOTAL TEMP POTENTIAL TOTAL3 TEMPAVG PRESSURE GPRESSURE VOLUME PRESSAVG GPRESSAVG
ENERGY: 5000 1529.4567 2205.3250 3147.5364 0.0000 -175770.5719 20321.0271 402.5590 0.0000 30812.0100 -117352.6577 299.5761 -148164.6677 -117308.1036 299.5761 -103.8776 -62.8201 505995.1205 -103.8776 -62.8201
ENERGY: 6000 1579.8950 2273.8042 3150.4024 0.0000 -174697.1757 19803.3619 646.1288 0.0000 30970.0351 -116273.5484 301.1125 -147243.5835 -116234.1912 300.1030 -13.4965 -1.8275 505633.5125 -5.3609 -4.5922
ENERGY: 7000 1573.1685 2327.8645 3169.8502 0.0000 -175580.7860 20367.3919 632.5396 0.0000 30798.3759 -116711.5954 299.4435 -147509.9713 -116667.0033 300.2454 -18.6103 25.6175 502815.0792 0.9458 1.3154
ENERGY: 8000 1626.5395 2352.7943 3159.4604 0.0000 -175523.1274 20089.0452 657.5821 0.0000 30777.6489 -116860.0570 299.2420 -147637.7059 -116821.8667 299.6661 -49.1379 -11.7615 502646.2920 -1.7874 -1.3970
ENERGY: 9000 1615.4539 2369.9614 3188.5893 0.0000 -175652.2877 20127.0319 631.0617 0.0000 30433.7199 -117286.4697 295.8981 -147720.1896 -117249.1968 297.8828 60.8057 15.0757 501388.9676 0.0429 0.6545
ENERGY: 10000 1597.3344 2402.3816 3161.6992 0.0000 -175844.8513 20203.1240 608.3907 0.0000 30888.8934 -116983.0279 300.3236 -147871.9214 -116941.2207 299.2438 -115.6669 -35.0292 501071.5405 -13.6971 -13.3298
TCL: Setting parameter constraintScaling to 2.5
TCL: Running for 5000 steps
ETITLE: TS BOND ANGLE DIHED IMPRP ELECT VDW BOUNDARY MISC KINETIC TOTAL TEMP POTENTIAL TOTAL3 TEMPAVG PRESSURE GPRESSURE VOLUME PRESSAVG GPRESSAVG
ENERGY: 10000 1597.3344 2402.3816 3161.6992 0.0000 -175844.8512 20203.1240 304.1954 0.0000 30886.8425 -117289.2742 300.3037 -148176.1167 -117245.3688 300.3037 -147.7600 -62.3556 501071.5405 -147.7600 -62.3556
ENERGY: 11000 1543.1918 2313.8440 3163.8019 0.0000 -175392.4623 19977.9099 498.6352 0.0000 30712.7039 -117182.3755 298.6106 -147895.0794 -117131.8118 298.4841 16.2003 20.8689 502319.5654 -0.2743 0.2024
ENERGY: 12000 1578.4422 2419.1159 3195.7783 0.0000 -175621.5754 20113.4158 510.0470 0.0000 30875.5068 -116929.2694 300.1934 -147804.7762 -116886.9485 298.9056 -54.1333 -11.5225 500423.8600 1.8001 2.2679
ENERGY: 13000 1615.2448 2380.2046 3160.0186 0.0000 -175861.4635 20173.4785 492.9636 0.0000 30999.8249 -117039.7285 301.4021 -148039.5534 -116990.7277 300.1416 -11.2668 -8.0679 499574.8358 -2.5463 -2.5444
ENERGY: 14000 1581.9786 2334.5062 3170.1472 0.0000 -175670.1369 20269.0021 525.7267 0.0000 30751.1550 -117037.6210 298.9844 -147788.7760 -116993.2800 300.1558 -43.9883 -7.5071 500327.8582 0.2650 0.0712
ENERGY: 15000 1633.3775 2251.9743 3175.4776 0.0000 -175991.7660 20330.4946 507.7199 0.0000 30973.7236 -117118.9985 301.1484 -148092.7221 -117075.3197 300.4979 -54.6998 1.6986 499651.9238 4.6412 4.6373
TCL: Setting parameter constraintScaling to 1.25
TCL: Running for 5000 steps
ETITLE: TS BOND ANGLE DIHED IMPRP ELECT VDW BOUNDARY MISC KINETIC TOTAL TEMP POTENTIAL TOTAL3 TEMPAVG PRESSURE GPRESSURE VOLUME PRESSAVG GPRESSAVG
ENERGY: 15000 1633.3775 2251.9743 3175.4776 0.0000 -175991.7660 20330.4946 253.8600 0.0000 30971.7096 -117374.8725 301.1288 -148346.5821 -117332.1182 301.1288 -34.7409 22.0648 499651.9238 -34.7409 22.0648
ENERGY: 16000 1623.6318 2381.6814 3188.1925 0.0000 -176398.9843 20301.3158 411.8211 0.0000 30897.9707 -117594.3710 300.4118 -148492.3417 -117546.1204 298.8082 12.7473 28.5420 498640.8615 2.2024 2.1872
ENERGY: 17000 1690.7491 2389.4114 3183.4797 0.0000 -175943.1127 20110.8876 402.8161 0.0000 30714.6006 -117451.1682 298.6290 -148165.7688 -117412.7467 299.3179 -134.8607 10.7038 498532.7228 -5.5518 -5.3764
ENERGY: 18000 1662.7154 2322.7883 3170.7847 0.0000 -176011.1309 20271.6006 400.5609 0.0000 31029.1055 -117153.5756 301.6868 -148182.6811 -117109.1791 300.2208 -8.3331 -2.4220 499606.5285 4.7498 5.1657
ENERGY: 19000 1624.4805 2337.9882 3177.7151 0.0000 -175415.3468 19977.3753 431.7679 0.0000 30544.0661 -117321.9538 296.9709 -147866.0198 -117275.9693 299.8700 -9.7999 5.1959 499641.3586 -0.9566 -0.9418
ENERGY: 20000 1627.1172 2432.4876 3189.2969 0.0000 -176139.1453 20137.6221 411.9403 0.0000 30921.6453 -117419.0359 300.6420 -148340.6813 -117378.4912 298.8421 -25.5191 63.8302 497525.0135 -5.0453 -5.0603
TCL: Setting parameter constraintScaling to 0.625
TCL: Running for 5000 steps
ETITLE: TS BOND ANGLE DIHED IMPRP ELECT VDW BOUNDARY MISC KINETIC TOTAL TEMP POTENTIAL TOTAL3 TEMPAVG PRESSURE GPRESSURE VOLUME PRESSAVG GPRESSAVG
ENERGY: 20000 1627.1172 2432.4876 3189.2969 0.0000 -176139.1453 20137.6221 205.9702 0.0000 30919.6019 -117627.0495 300.6222 -148546.6514 -117581.7134 300.6222 -136.6211 -43.9850 497525.0135 -136.6211 -43.9850
ENERGY: 21000 1608.6769 2422.2484 3211.0585 0.0000 -175907.5110 19961.8343 306.8711 0.0000 30625.2311 -117771.5905 297.7601 -148396.8216 -117737.4151 298.1994 -71.3886 -54.1868 498289.7140 6.6706 6.3970
ENERGY: 22000 1634.5490 2362.4329 3237.1564 0.0000 -176011.2148 20096.0257 322.0427 0.0000 30926.9726 -117432.0356 300.6938 -148359.0082 -117378.1673 298.6771 -45.3603 -52.3140 498120.6181 9.7945 9.8815
ENERGY: 23000 1631.4292 2419.2934 3208.8808 0.0000 -176192.2554 20131.3617 309.8504 0.0000 30674.4178 -117817.0221 298.2383 -148491.4399 -117771.9656 299.3081 -97.0297 -8.0826 497312.0420 2.0692 2.1580
ENERGY: 24000 1677.8852 2424.1969 3204.6596 0.0000 -175965.6006 20203.2418 311.1761 0.0000 30721.2001 -117423.2410 298.6932 -148144.4410 -117378.4230 299.3423 -52.0709 9.7487 497308.3160 1.3040 0.8681
ENERGY: 25000 1673.3778 2396.4638 3226.0999 0.0000 -175330.9739 20044.8578 326.7362 0.0000 30637.1530 -117026.2853 297.8760 -147663.4383 -116988.9193 299.6230 -98.2578 -13.2399 498006.4652 -3.9355 -3.5640
TCL: Setting parameter constraintScaling to 0.3125
TCL: Running for 5000 steps
ETITLE: TS BOND ANGLE DIHED IMPRP ELECT VDW BOUNDARY MISC KINETIC TOTAL TEMP POTENTIAL TOTAL3 TEMPAVG PRESSURE GPRESSURE VOLUME PRESSAVG GPRESSAVG
ENERGY: 25000 1673.3778 2396.4638 3226.0999 0.0000 -175330.9739 20044.8578 163.3681 0.0000 30635.1021 -117191.7043 297.8561 -147826.8064 -117152.1760 297.8561 -134.4456 -51.4173 498006.4652 -134.4456 -51.4173
ENERGY: 26000 1568.6109 2433.6992 3186.8097 0.0000 -175630.1874 20152.4971 216.9533 0.0000 30808.7828 -117262.8343 299.5447 -148071.6171 -117208.9194 299.8545 184.2042 120.5939 496920.0207 -6.7470 -6.4734
ENERGY: 27000 1580.8227 2335.7848 3190.7584 0.0000 -175467.9168 19749.0629 248.6655 0.0000 30986.6340 -117376.1884 301.2739 -148362.8224 -117333.8751 299.3688 -93.1538 -86.4275 497203.8729 2.0551 2.2706
ENERGY: 28000 1654.4135 2383.8198 3185.5734 0.0000 -175924.3179 20221.1908 245.4331 0.0000 30884.4103 -117349.4769 300.2800 -148233.8872 -117302.8965 300.3102 -167.2392 -77.0999 497779.2729 6.6840 6.6984
ENERGY: 29000 1634.7926 2388.5462 3213.0893 0.0000 -175603.1075 20083.2980 257.0379 0.0000 30898.7966 -117127.5468 300.4199 -148026.3434 -117085.7627 300.1074 -61.3500 -4.3162 498323.3254 15.0695 14.9552
ENERGY: 30000 1620.3961 2426.9924 3197.7502 0.0000 -176111.5202 20276.1450 258.3222 0.0000 30947.0244 -117384.8899 300.8888 -148331.9144 -117348.0469 299.9329 -26.8035 18.5743 497390.4281 -5.7327 -5.6575
TCL: Setting parameter constraintScaling to 0.15625
TCL: Running for 5000 steps
ETITLE: TS BOND ANGLE DIHED IMPRP ELECT VDW BOUNDARY MISC KINETIC TOTAL TEMP POTENTIAL TOTAL3 TEMPAVG PRESSURE GPRESSURE VOLUME PRESSAVG GPRESSAVG
ENERGY: 30000 1620.3961 2426.9924 3197.7502 0.0000 -176111.5202 20276.1450 129.1611 0.0000 30944.9837 -117516.0918 300.8689 -148461.0755 -117474.6580 300.8689 -10.2359 35.7508 497390.4281 -10.2359 35.7508
ENERGY: 31000 1598.5562 2362.9881 3233.2073 0.0000 -175565.0429 20080.2018 184.8199 0.0000 30880.0304 -117225.2392 300.2374 -148105.2695 -117184.7497 300.4456 -74.9937 -15.5585 498181.7174 14.8864 13.9817
ENERGY: 32000 1623.7428 2429.9648 3228.9910 0.0000 -175504.1067 19974.0386 189.6818 0.0000 30832.3052 -117225.3826 299.7734 -148057.6878 -117183.2845 300.3364 -16.7400 26.1942 496716.4032 -5.7036 -6.3520
ENERGY: 33000 1569.5372 2491.1086 3220.9642 0.0000 -175325.2446 19841.9030 207.5444 0.0000 30956.1261 -117038.0608 300.9773 -147994.1870 -116994.3435 300.3353 -19.4675 -46.8101 498329.5502 12.0827 12.3102
ENERGY: 34000 1682.8985 2431.0913 3181.5460 0.0000 -175762.9318 20094.3855 206.1301 0.0000 31054.3263 -117112.5542 301.9320 -148166.8805 -117067.6386 300.8673 52.9385 97.4337 497507.9012 -2.9965 -2.3326
ENERGY: 35000 1610.3576 2386.9525 3204.2829 0.0000 -175531.1482 19888.7939 201.7624 0.0000 30920.1273 -117318.8717 300.6273 -148238.9990 -117270.5485 299.9454 -172.7865 -103.1659 496549.4135 -10.1746 -9.7860
TCL: Setting parameter constraintScaling to 0.078125
TCL: Running for 5000 steps
ETITLE: TS BOND ANGLE DIHED IMPRP ELECT VDW BOUNDARY MISC KINETIC TOTAL TEMP POTENTIAL TOTAL3 TEMPAVG PRESSURE GPRESSURE VOLUME PRESSAVG GPRESSAVG
ENERGY: 35000 1610.3576 2386.9525 3204.2829 0.0000 -175531.1482 19888.7939 100.8812 0.0000 30918.0696 -117421.8105 300.6073 -148339.8801 -117378.6859 300.6073 -188.9475 -114.6601 496549.4135 -188.9475 -114.6601
ENERGY: 36000 1653.0990 2408.3658 3225.3180 0.0000 -176122.4139 19993.9772 145.4706 0.0000 31020.5659 -117675.6174 301.6038 -148696.1833 -117633.6917 299.8259 -114.5059 1.2025 496475.6865 4.4039 4.3871
ENERGY: 37000 1627.1174 2391.3664 3224.0772 0.0000 -175645.2859 19929.0831 160.3225 0.0000 30720.6076 -117592.7118 298.6874 -148313.3194 -117541.2364 299.8424 160.9983 129.5817 497673.7722 6.1306 6.0603
ENERGY: 38000 1628.3318 2392.3957 3209.9382 0.0000 -175961.8433 19900.4738 160.3708 0.0000 30840.1049 -117830.2281 299.8492 -148670.3330 -117788.8521 298.7344 18.7350 36.6797 497036.7427 7.2978 7.6763
ENERGY: 39000 1615.7771 2396.4157 3207.9979 0.0000 -175496.5424 19858.8925 149.2562 0.0000 30733.2008 -117535.0022 298.8098 -148268.2030 -117498.4289 299.3854 -27.3488 -75.8095 497572.0235 9.0954 8.7423
ENERGY: 40000 1567.0566 2359.4186 3233.7788 0.0000 -175709.4706 19996.4541 158.2083 0.0000 30804.3776 -117590.1766 299.5019 -148394.5542 -117546.0360 299.3468 40.9008 30.8052 496904.6501 7.6020 7.5826
TCL: Setting parameter constraintScaling to 0.0390625
TCL: Running for 5000 steps
ETITLE: TS BOND ANGLE DIHED IMPRP ELECT VDW BOUNDARY MISC KINETIC TOTAL TEMP POTENTIAL TOTAL3 TEMPAVG PRESSURE GPRESSURE VOLUME PRESSAVG GPRESSAVG
ENERGY: 40000 1567.0566 2359.4186 3233.7788 0.0000 -175709.4706 19996.4541 79.1041 0.0000 30802.3218 -117671.3365 299.4819 -148473.6583 -117629.1071 299.4819 24.8289 19.1499 496904.6501 24.8289 19.1499
ENERGY: 41000 1626.4944 2451.0391 3201.4632 0.0000 -175991.6829 20198.9644 113.9147 0.0000 30828.5898 -117571.2172 299.7373 -148399.8070 -117518.3861 298.8003 -63.4378 19.6029 496465.6223 -5.1603 -5.3715
ENERGY: 42000 1619.4457 2422.0991 3190.5800 0.0000 -175127.8428 19790.1968 122.5028 0.0000 30888.5113 -117094.5071 300.3199 -147983.0184 -117038.8310 300.4478 -78.8748 -73.6032 498673.9961 8.0594 8.3354
ENERGY: 43000 1644.2415 2346.7838 3218.4229 0.0000 -175798.1260 20079.9366 121.4731 0.0000 30638.8483 -117748.4199 297.8925 -148387.2681 -117690.4805 299.4388 29.8507 40.7267 496787.2203 -6.9627 -7.2620
ENERGY: 44000 1649.5036 2423.4158 3175.6217 0.0000 -176512.2676 20303.7347 122.5330 0.0000 30780.4169 -118057.0419 299.2689 -148837.4588 -118010.5234 298.4936 134.0870 41.2496 496730.2015 -0.6683 -0.9102
ENERGY: 45000 1632.6732 2444.9534 3186.5766 0.0000 -176488.7740 20235.0261 133.8866 0.0000 30863.9872 -117991.6710 300.0814 -148855.6582 -117944.2322 299.4934 78.9680 84.9997 497227.9771 -2.2360 -2.9893
TCL: Setting parameter constraintScaling to 0.01953125
TCL: Running for 5000 steps
ETITLE: TS BOND ANGLE DIHED IMPRP ELECT VDW BOUNDARY MISC KINETIC TOTAL TEMP POTENTIAL TOTAL3 TEMPAVG PRESSURE GPRESSURE VOLUME PRESSAVG GPRESSAVG
ENERGY: 45000 1632.6732 2444.9534 3186.5766 0.0000 -176488.7740 20235.0261 66.9433 0.0000 30861.9564 -118060.6451 300.0617 -148922.6015 -118014.0365 300.0617 76.5783 78.2072 497227.9771 76.5783 78.2072
ENERGY: 46000 1598.8831 2435.2702 3211.4408 0.0000 -175450.0532 19784.2339 79.1481 0.0000 30855.4442 -117485.6331 299.9984 -148341.0773 -117439.7083 300.4052 -212.2007 -125.3691 496911.9960 10.7301 10.3493
ENERGY: 47000 1645.1513 2443.7837 3188.7193 0.0000 -175908.5132 20111.0664 77.6421 0.0000 30829.8643 -117612.2862 299.7497 -148442.1505 -117559.8141 299.5475 -11.1716 75.3825 496489.2020 -1.9971 -2.0495
ENERGY: 48000 1646.4008 2434.3762 3217.7843 0.0000 -175801.2417 20019.0674 88.6937 0.0000 30693.2242 -117701.6951 298.4212 -148394.9193 -117646.7222 299.6614 -31.9228 -14.1682 497104.4859 4.3979 4.1538
ENERGY: 49000 1650.6146 2420.4488 3209.1896 0.0000 -175524.7466 19937.2012 91.5176 0.0000 30846.3355 -117369.4393 299.9098 -148215.7748 -117326.6506 300.1514 -16.8879 53.0437 497276.0426 0.7292 0.8730
ENERGY: 50000 1632.0140 2429.6453 3226.1998 0.0000 -175744.9275 19892.4502 86.2831 0.0000 31044.8972 -117433.4379 301.8404 -148478.3351 -117384.2933 300.2702 7.7408 -6.9540 496516.6927 5.9790 5.4039
TCL: Setting parameter constraintScaling to 0
TCL: Running for 5000 steps
ETITLE: TS BOND ANGLE DIHED IMPRP ELECT VDW BOUNDARY MISC KINETIC TOTAL TEMP POTENTIAL TOTAL3 TEMPAVG PRESSURE GPRESSURE VOLUME PRESSAVG GPRESSAVG
ENERGY: 50000 1632.0140 2429.6453 3226.1998 0.0000 -175744.9275 19892.4502 0.0000 0.0000 31042.8652 -117521.7530 301.8206 -148564.6181 -117476.4248 301.8206 19.4395 -5.2431 496516.6927 19.4395 -5.2431
ENERGY: 51000 1707.6325 2354.5275 3218.5275 0.0000 -175927.4449 20068.6294 0.0000 0.0000 30908.3215 -117669.8065 300.5125 -148578.1280 -117624.3438 299.6954 -90.7075 -13.4439 495537.9745 -2.2749 -2.3836
ENERGY: 52000 1625.3789 2401.0640 3193.9103 0.0000 -175829.4596 20087.3764 0.0000 0.0000 30759.1813 -117762.5486 299.0624 -148521.7299 -117704.3640 299.5235 -6.9791 37.9181 496322.2378 4.0551 4.1254
ENERGY: 53000 1651.7443 2415.2850 3201.3995 0.0000 -176261.0433 20178.0009 0.0000 0.0000 30638.5272 -118176.0863 297.8894 -148814.6135 -118127.0106 298.1768 -186.4048 -10.6644 496534.6274 6.6631 6.5836
ENERGY: 54000 1613.0500 2436.3951 3180.1756 0.0000 -176106.0633 20065.4542 0.0000 0.0000 30698.8159 -118112.1726 298.4755 -148810.9885 -118071.7432 299.6124 26.1668 62.3195 495858.9926 -2.3894 -1.9123
ENERGY: 55000 1625.6050 2417.1675 3177.0083 0.0000 -176164.1100 20127.0121 0.0000 0.0000 30608.4222 -118208.8950 297.5967 -148817.3172 -118172.6392 299.0508 5.3706 15.0813 497046.7887 -0.3682 -0.3679
