Info: SIMULATION PARAMETERS:
Info: TIMESTEP               2
Info: NUMBER OF STEPS        0
Info: STEPS PER CYCLE        10
Info: PERIODIC CELL BASIS 1  72.449 0 0
Info: PERIODIC CELL BASIS 2  0 93.247 0
Info: PERIODIC CELL BASIS 3  0 0 79.185
Info: PERIODIC CELL CENTER   -0.248 -0.156 -0.047
Info: WRAPPING WATERS AROUND PERIODIC BOUNDARIES ON OUTPUT.
Info: WRAPPING ALL CLUSTERS AROUND PERIODIC BOUNDARIES ON OUTPUT.
Info: FIRST LDB TIMESTEP     50
Info: LAST LDB TIMESTEP     -1
Info: HOM BACKGROUND SCALING 1
Info: PME BACKGROUND SCALING 1
Info: MIN ATOMS PER PATCH    40
Info: INITIAL TEMPERATURE    0
Info: CENTER OF MASS MOVING INITIALLY? NO
Info: DIELECTRIC             1
Info: EXCLUDE                SCALED ONE-FOUR
Info: 1-4 ELECTROSTATICS SCALED BY 0.833333
Info: MODIFIED 1-4 VDW PARAMETERS WILL BE USED
Info: NO DCD TRAJECTORY OUTPUT
Info: NO EXTENDED SYSTEM TRAJECTORY OUTPUT
Info: NO VELOCITY DCD OUTPUT
Info: NO FORCE DCD OUTPUT
Info: OUTPUT FILENAME        ../replicas/rep4/equilibration/eq0
Info: NO RESTART FILE
Info: SWITCHING ACTIVE
Info: SWITCHING ON           10
Info: SWITCHING OFF          12
Info: PAIRLIST DISTANCE      13.5
Info: PAIRLIST SHRINK RATE   0.01
Info: PAIRLIST GROW RATE     0.01
Info: PAIRLIST TRIGGER       0.3
Info: PAIRLISTS PER CYCLE    2
Info: PAIRLISTS ENABLED
Info: MARGIN                 0
Info: HYDROGEN GROUP CUTOFF  2.5
Info: PATCH DIMENSION        16
Info: ENERGY OUTPUT STEPS    500
Info: CROSSTERM ENERGY INCLUDED IN DIHEDRAL
Info: TIMING OUTPUT STEPS    5000
Info: PRESSURE OUTPUT STEPS  500
Info: HARMONIC CONSTRAINTS ACTIVE
Info: HARMONIC CONS EXP      2
Info: HARMONIC CONS SCALING  10
Info: CONJUGATE GRADIENT MINIMIZATION ACTIVE
Info: LINE MINIMIZATION GOAL = 0.001
Info: BABY STEP SIZE = 0.01
Info: TINY STEP SIZE = 1e-06
Info: PARTICLE MESH EWALD (PME) ACTIVE
Info: PME TOLERANCE               1e-06
Info: PME EWALD COEFFICIENT       0.257952
Info: PME INTERPOLATION ORDER     4
Info: PME GRID DIMENSIONS         80 96 80
Info: PME MAXIMUM GRID SPACING    1
Info: FULL ELECTROSTATIC EVALUATION FREQUENCY      2
Info: USING VERLET I (r-RESPA) MTS SCHEME.
Info: C1 SPLITTING OF LONG RANGE ELECTROSTATICS
Info: PLACING ATOMS IN PATCHES BY HYDROGEN GROUPS
Info: RIGID BONDS TO HYDROGEN : ALL
Info:         ERROR TOLERANCE : 1e-05
Info:          MAX ITERATIONS : 100
Info: RIGID WATER USING SETTLE ALGORITHM
Info: RANDOM NUMBER SEED     1503691242
Info: USE HYDROGEN BONDS?    NO
Info: Using AMBER format force field!
Info: AMBER PARM FILE        ../build/complex.top
Info: COORDINATE PDB         ../build/complex.pdb
Info: Exclusions in PARM file will be ignored!
Info: SCNB (VDW SCALING)     2
Info: USING ARITHMETIC MEAN TO COMBINE L-J SIGMA PARAMETERS
Info: SUMMARY OF PARAMETERS:
Info: 71 BONDS
Info: 145 ANGLES
Info: 76 DIHEDRAL
Info: 0 IMPROPER
Info: 0 CROSSTERM
Info: 0 VDW
Info: 190 VDW_PAIRS
Info: 0 NBTHOLE_PAIRS
Info: STRUCTURE SUMMARY:
Info: 49394 ATOMS
Info: 49448 BONDS
Info: 8698 ANGLES
Info: 18780 DIHEDRALS
Info: 0 IMPROPERS
Info: 0 CROSSTERMS
Info: 0 EXCLUSIONS
Info: 2336 CONSTRAINTS
Info: 47058 RIGID BONDS
Info: 101124 DEGREES OF FREEDOM
Info: 17225 HYDROGEN GROUPS
Info: 4 ATOMS IN LARGEST HYDROGEN GROUP
Info: 17225 MIGRATION GROUPS
Info: 4 ATOMS IN LARGEST MIGRATION GROUP
Info: TOTAL MASS = 301478 amu
Info: TOTAL CHARGE = 1.00115e-05 e
Info: MASS DENSITY = 0.935846 g/cm^3
Info: ATOM DENSITY = 0.0923345 atoms/A^3
Info: ADDED 70656 IMPLICIT EXCLUSIONS
Info: NONBONDED TABLE R-SQUARED SPACING: 0.0625
Info: NONBONDED TABLE SIZE: 769 POINTS
Info: REMOVING COM VELOCITY 0 0 0
TCL: Minimizing for 100 steps
ETITLE: TS BOND ANGLE DIHED IMPRP ELECT VDW BOUNDARY MISC KINETIC TOTAL TEMP POTENTIAL TOTAL3 TEMPAVG PRESSURE GPRESSURE VOLUME PRESSAVG GPRESSAVG
ENERGY: 0 155.4176 1012.2698 2855.7272 0.0000 -154496.7911 207729.2052 0.0468 0.0000 0.0000 57255.8755 0.0000 57255.8755 57255.8755 0.0000 116350.2532 86546.1670 534946.2959 116350.2532 86546.1670
ENERGY: 20 304.7551 935.7911 2893.4663 0.0000 -158672.9406 17936.6594 143.9454 0.0000 0.0000 -136458.3232 0.0000 -136458.3232 -136458.3232 0.0000 16523.9387 -239.4558 534946.2959 16523.9387 -239.4558
ENERGY: 40 198.7443 799.5727 2896.9273 0.0000 -162811.4535 16417.9536 221.3030 0.0000 0.0000 -142276.9526 0.0000 -142276.9526 -142276.9526 0.0000 15011.2702 -2135.4699 534946.2959 15011.2702 -2135.4699
ENERGY: 60 130.5283 715.3440 2898.2166 0.0000 -167496.1568 15446.7540 315.2796 0.0000 0.0000 -147990.0344 0.0000 -147990.0344 -147990.0344 0.0000 13793.8837 -3799.3986 534946.2959 13793.8837 -3799.3986
ENERGY: 80 431.2727 765.6308 2904.3785 0.0000 -169937.5244 15121.1530 372.0121 0.0000 0.0000 -150343.0773 0.0000 -150343.0773 -150343.0773 0.0000 13270.3320 -4577.2432 534946.2959 13270.3320 -4577.2432
ENERGY: 100 129.7149 708.0653 2904.2780 0.0000 -171050.0703 15018.6527 384.2001 0.0000 0.0000 -151905.1594 0.0000 -151905.1594 -151905.1594 0.0000 13092.9119 -4843.6332 534946.2959 13092.9119 -4843.6332
TCL: Setting parameter constraintScaling to 5.0
TCL: Minimizing for 100 steps
ETITLE: TS BOND ANGLE DIHED IMPRP ELECT VDW BOUNDARY MISC KINETIC TOTAL TEMP POTENTIAL TOTAL3 TEMPAVG PRESSURE GPRESSURE VOLUME PRESSAVG GPRESSAVG
ENERGY: 100 129.7149 708.0653 2904.2780 0.0000 -171050.0703 15018.6527 192.1000 0.0000 0.0000 -152097.2594 0.0000 -152097.2594 -152097.2594 0.0000 13703.5072 -22944.4562 534946.2959 13703.5072 -22944.4562
ENERGY: 120 118.6824 680.2876 2909.9066 0.0000 -172396.3216 14830.1199 259.9551 0.0000 0.0000 -153597.3700 0.0000 -153597.3700 -153597.3700 0.0000 13320.9460 -4756.3094 534946.2959 13320.9460 -4756.3094
ENERGY: 140 109.1489 671.1466 2912.0864 0.0000 -174830.3004 14716.1436 337.7318 0.0000 0.0000 -156084.0430 0.0000 -156084.0430 -156084.0430 0.0000 12908.9534 -5423.1560 534946.2959 12908.9534 -5423.1560
ENERGY: 160 125.8557 667.1494 2914.1927 0.0000 -175966.9819 14735.1317 362.9172 0.0000 0.0000 -157161.7353 0.0000 -157161.7353 -157161.7353 0.0000 12806.9026 -5641.4407 534946.2959 12806.9026 -5641.4407
ENERGY: 180 303.5237 659.6752 2917.2964 0.0000 -177408.6330 14815.0086 395.3812 0.0000 0.0000 -158317.7479 0.0000 -158317.7479 -158317.7479 0.0000 12699.3186 -5898.4204 534946.2959 12699.3186 -5898.4204
ENERGY: 200 109.2112 628.4798 2923.3603 0.0000 -179544.2887 15071.2297 441.8945 0.0000 0.0000 -160370.1132 0.0000 -160370.1132 -160370.1132 0.0000 12659.9893 -6158.1045 534946.2959 12659.9893 -6158.1045
TCL: Setting parameter constraintScaling to 2.5
TCL: Minimizing for 100 steps
ETITLE: TS BOND ANGLE DIHED IMPRP ELECT VDW BOUNDARY MISC KINETIC TOTAL TEMP POTENTIAL TOTAL3 TEMPAVG PRESSURE GPRESSURE VOLUME PRESSAVG GPRESSAVG
ENERGY: 200 109.2112 628.4798 2923.3603 0.0000 -179544.2887 15071.2297 220.9473 0.0000 0.0000 -160591.0604 0.0000 -160591.0604 -160591.0604 0.0000 13208.4223 -25277.2876 534946.2959 13208.4223 -25277.2876
ENERGY: 220 275.2329 652.0852 2925.2600 0.0000 -180396.2694 15108.9335 288.0067 0.0000 0.0000 -161146.7511 0.0000 -161146.7511 -161146.7511 0.0000 12999.8584 -5917.6179 534946.2959 12999.8584 -5917.6179
ENERGY: 240 144.3775 628.9498 2922.0800 0.0000 -181649.6335 15308.6722 331.4679 0.0000 0.0000 -162314.0861 0.0000 -162314.0861 -162314.0861 0.0000 12968.8652 -6078.5164 534946.2959 12968.8652 -6078.5164
ENERGY: 260 299.3540 656.3403 2922.7801 0.0000 -183705.6685 15778.1315 415.1073 0.0000 0.0000 -163633.9552 0.0000 -163633.9552 -163633.9552 0.0000 12992.2256 -6284.0923 534946.2959 12992.2256 -6284.0923
ENERGY: 280 150.1552 673.9038 2920.6038 0.0000 -184629.2065 16045.7832 433.1775 0.0000 0.0000 -164405.5829 0.0000 -164405.5829 -164405.5829 0.0000 13101.3017 -6290.3704 534946.2959 13101.3017 -6290.3704
ENERGY: 300 178.4446 668.9659 2922.9866 0.0000 -185718.0590 16384.0404 428.2596 0.0000 0.0000 -165135.3619 0.0000 -165135.3619 -165135.3619 0.0000 13250.9705 -6243.0426 534946.2959 13250.9705 -6243.0426
TCL: Setting parameter constraintScaling to 1.25
TCL: Minimizing for 100 steps
ETITLE: TS BOND ANGLE DIHED IMPRP ELECT VDW BOUNDARY MISC KINETIC TOTAL TEMP POTENTIAL TOTAL3 TEMPAVG PRESSURE GPRESSURE VOLUME PRESSAVG GPRESSAVG
ENERGY: 300 178.4446 668.9659 2922.9866 0.0000 -185718.0590 16384.0404 214.1298 0.0000 0.0000 -165349.4917 0.0000 -165349.4917 -165349.4917 0.0000 13666.9198 -26244.6377 534946.2959 13666.9198 -26244.6377
ENERGY: 320 170.6573 666.9312 2915.1548 0.0000 -186231.4228 16487.7491 252.0086 0.0000 0.0000 -165738.9218 0.0000 -165738.9218 -165738.9218 0.0000 13638.9423 -5922.5263 534946.2959 13638.9423 -5922.5263
ENERGY: 340 193.6854 672.6524 2911.4657 0.0000 -187573.9015 16857.8947 334.3120 0.0000 0.0000 -166603.8913 0.0000 -166603.8913 -166603.8913 0.0000 13611.1377 -6083.9410 534946.2959 13611.1377 -6083.9410
ENERGY: 360 150.2105 648.0567 2904.6513 0.0000 -188580.7992 17188.4080 384.0816 0.0000 0.0000 -167305.3910 0.0000 -167305.3910 -167305.3910 0.0000 13719.8727 -6103.0526 534946.2959 13719.8727 -6103.0526
ENERGY: 380 197.9886 680.0397 2913.6489 0.0000 -189361.6757 17498.0993 355.9376 0.0000 0.0000 -167715.9617 0.0000 -167715.9617 -167715.9617 0.0000 13894.0927 -5994.4155 534946.2959 13894.0927 -5994.4155
ENERGY: 400 195.7623 689.3791 2931.3656 0.0000 -190497.2206 17996.8834 329.0545 0.0000 0.0000 -168354.7756 0.0000 -168354.7756 -168354.7756 0.0000 14264.5915 -5791.5978 534946.2959 14264.5915 -5791.5978
TCL: Setting parameter constraintScaling to 0.625
TCL: Minimizing for 100 steps
ETITLE: TS BOND ANGLE DIHED IMPRP ELECT VDW BOUNDARY MISC KINETIC TOTAL TEMP POTENTIAL TOTAL3 TEMPAVG PRESSURE GPRESSURE VOLUME PRESSAVG GPRESSAVG
ENERGY: 400 195.7623 689.3791 2931.3656 0.0000 -190497.2206 17996.8834 164.5273 0.0000 0.0000 -168519.3029 0.0000 -168519.3029 -168519.3029 0.0000 14544.8900 -26511.1052 534946.2959 14544.8900 -26511.1052
ENERGY: 420 164.2108 640.4197 2898.2162 0.0000 -190816.1278 18040.5597 190.1709 0.0000 0.0000 -168882.5505 0.0000 -168882.5505 -168882.5505 0.0000 14463.9157 -5619.3572 534946.2959 14463.9157 -5619.3572
ENERGY: 440 177.2706 671.7561 2896.6565 0.0000 -191515.1360 18226.6859 246.7638 0.0000 0.0000 -169296.0031 0.0000 -169296.0031 -169296.0031 0.0000 14383.5434 -5762.4409 534946.2959 14383.5434 -5762.4409
ENERGY: 460 165.6632 656.2466 2889.9477 0.0000 -192102.7805 18422.6061 257.7947 0.0000 0.0000 -169710.5223 0.0000 -169710.5223 -169710.5223 0.0000 14474.1001 -5740.3383 534946.2959 14474.1001 -5740.3383
ENERGY: 480 165.8204 672.4101 2910.9916 0.0000 -192933.0354 18799.6201 246.8301 0.0000 0.0000 -170137.3630 0.0000 -170137.3630 -170137.3630 0.0000 14757.6455 -5562.2661 534946.2959 14757.6455 -5562.2661
ENERGY: 500 142.1722 662.5961 2906.5389 0.0000 -193956.6700 19214.2703 270.9152 0.0000 0.0000 -170760.1773 0.0000 -170760.1773 -170760.1773 0.0000 14960.4460 -5482.7808 534946.2959 14960.4460 -5482.7808
TCL: Setting parameter constraintScaling to 0.3125
TCL: Minimizing for 100 steps
ETITLE: TS BOND ANGLE DIHED IMPRP ELECT VDW BOUNDARY MISC KINETIC TOTAL TEMP POTENTIAL TOTAL3 TEMPAVG PRESSURE GPRESSURE VOLUME PRESSAVG GPRESSAVG
ENERGY: 500 142.1722 662.5961 2906.5389 0.0000 -193956.6700 19214.2703 135.4576 0.0000 0.0000 -170895.6349 0.0000 -170895.6349 -170895.6349 0.0000 15148.1289 -26713.9932 534946.2959 15148.1289 -26713.9932
ENERGY: 520 150.0045 637.1461 2877.0099 0.0000 -194325.4056 19283.3152 158.6609 0.0000 0.0000 -171219.2691 0.0000 -171219.2691 -171219.2691 0.0000 15041.2428 -5430.3500 534946.2959 15041.2428 -5430.3500
ENERGY: 540 160.9424 656.2444 2878.1450 0.0000 -195148.8792 19563.2382 188.0900 0.0000 0.0000 -171702.2191 0.0000 -171702.2191 -171702.2191 0.0000 15081.2778 -5474.0379 534946.2959 15081.2778 -5474.0379
ENERGY: 560 210.7007 668.7725 2875.0843 0.0000 -195919.2175 19858.9352 205.4547 0.0000 0.0000 -172100.2700 0.0000 -172100.2700 -172100.2700 0.0000 15190.2620 -5439.2531 534946.2959 15190.2620 -5439.2531
ENERGY: 580 160.8837 647.9449 2870.9371 0.0000 -196530.5680 20125.8501 201.3035 0.0000 0.0000 -172523.6488 0.0000 -172523.6488 -172523.6488 0.0000 15434.1313 -5291.6208 534946.2959 15434.1313 -5291.6208
ENERGY: 600 158.7210 645.0579 2875.8208 0.0000 -197455.6747 20510.5070 210.8844 0.0000 0.0000 -173054.6837 0.0000 -173054.6837 -173054.6837 0.0000 15649.8075 -5187.7356 534946.2959 15649.8075 -5187.7356
TCL: Setting parameter constraintScaling to 0.15625
TCL: Minimizing for 100 steps
ETITLE: TS BOND ANGLE DIHED IMPRP ELECT VDW BOUNDARY MISC KINETIC TOTAL TEMP POTENTIAL TOTAL3 TEMPAVG PRESSURE GPRESSURE VOLUME PRESSAVG GPRESSAVG
ENERGY: 600 158.7210 645.0579 2875.8208 0.0000 -197455.6747 20510.5070 105.4422 0.0000 0.0000 -173160.1259 0.0000 -173160.1259 -173160.1259 0.0000 15771.2331 -26917.5360 534946.2959 15771.2331 -26917.5360
ENERGY: 620 175.4842 642.8362 2861.4906 0.0000 -197765.0208 20575.7731 117.7546 0.0000 0.0000 -173391.6821 0.0000 -173391.6821 -173391.6821 0.0000 15662.1155 -5178.4863 534946.2959 15662.1155 -5178.4863
ENERGY: 640 168.8509 661.5024 2859.2720 0.0000 -198021.7320 20658.3782 124.2566 0.0000 0.0000 -173549.4719 0.0000 -173549.4719 -173549.4719 0.0000 15725.8046 -5159.7740 534946.2959 15725.8046 -5159.7740
ENERGY: 660 163.4637 667.8028 2854.1932 0.0000 -198874.6114 20974.5437 140.6674 0.0000 0.0000 -174073.9406 0.0000 -174073.9406 -174073.9406 0.0000 15852.4268 -5135.0455 534946.2959 15852.4268 -5135.0455
ENERGY: 680 168.8468 657.8581 2848.7718 0.0000 -199356.4034 21162.8297 146.5352 0.0000 0.0000 -174371.5618 0.0000 -174371.5618 -174371.5618 0.0000 15901.5721 -5129.5052 534946.2959 15901.5721 -5129.5052
ENERGY: 700 184.6895 685.1169 2849.9829 0.0000 -199654.5021 21279.1791 146.1766 0.0000 0.0000 -174509.3570 0.0000 -174509.3570 -174509.3570 0.0000 15957.6804 -5109.8277 534946.2959 15957.6804 -5109.8277
TCL: Setting parameter constraintScaling to 0.078125
TCL: Minimizing for 100 steps
ETITLE: TS BOND ANGLE DIHED IMPRP ELECT VDW BOUNDARY MISC KINETIC TOTAL TEMP POTENTIAL TOTAL3 TEMPAVG PRESSURE GPRESSURE VOLUME PRESSAVG GPRESSAVG
ENERGY: 700 184.6895 685.1169 2849.9829 0.0000 -199654.5021 21279.1791 73.0883 0.0000 0.0000 -174582.4453 0.0000 -174582.4453 -174582.4453 0.0000 16029.5080 -27180.4463 534946.2959 16029.5080 -27180.4463
ENERGY: 720 156.1081 647.1502 2844.7826 0.0000 -199731.6988 21296.6256 73.9819 0.0000 0.0000 -174713.0504 0.0000 -174713.0504 -174713.0504 0.0000 16109.7210 -4984.6573 534946.2959 16109.7210 -4984.6573
ENERGY: 740 187.8346 670.2082 2840.9684 0.0000 -200275.1020 21490.6222 80.6549 0.0000 0.0000 -175004.8137 0.0000 -175004.8137 -175004.8137 0.0000 16149.5101 -4997.8622 534946.2959 16149.5101 -4997.8622
ENERGY: 760 167.8024 652.4529 2836.5508 0.0000 -200829.9023 21699.6703 85.2926 0.0000 0.0000 -175388.1332 0.0000 -175388.1332 -175388.1332 0.0000 16248.0328 -4959.6207 534946.2959 16248.0328 -4959.6207
ENERGY: 780 241.7439 657.7429 2836.2570 0.0000 -201530.4015 21982.8067 88.7732 0.0000 0.0000 -175723.0779 0.0000 -175723.0779 -175723.0779 0.0000 16419.8953 -4875.3183 534946.2959 16419.8953 -4875.3183
ENERGY: 800 169.7429 657.8049 2830.6122 0.0000 -201822.8286 22086.8974 92.8854 0.0000 0.0000 -175984.8858 0.0000 -175984.8858 -175984.8858 0.0000 16472.0562 -4866.6767 534946.2959 16472.0562 -4866.6767
TCL: Setting parameter constraintScaling to 0.0390625
TCL: Minimizing for 100 steps
ETITLE: TS BOND ANGLE DIHED IMPRP ELECT VDW BOUNDARY MISC KINETIC TOTAL TEMP POTENTIAL TOTAL3 TEMPAVG PRESSURE GPRESSURE VOLUME PRESSAVG GPRESSAVG
ENERGY: 800 169.7429 657.8049 2830.6122 0.0000 -201822.8286 22086.8974 46.4427 0.0000 0.0000 -176031.3285 0.0000 -176031.3285 -176031.3285 0.0000 16513.8148 -27215.0300 534946.2959 16513.8148 -27215.0300
ENERGY: 820 163.9956 656.7323 2829.0074 0.0000 -202022.9986 22162.3192 47.4867 0.0000 0.0000 -176163.4575 0.0000 -176163.4575 -176163.4575 0.0000 16565.1252 -4802.7864 534946.2959 16565.1252 -4802.7864
ENERGY: 840 162.6358 652.4934 2826.3349 0.0000 -202470.6481 22341.6060 50.3466 0.0000 0.0000 -176437.2314 0.0000 -176437.2314 -176437.2314 0.0000 16608.0918 -4799.5836 534946.2959 16608.0918 -4799.5836
ENERGY: 860 177.9344 659.4831 2826.8051 0.0000 -202705.9226 22433.5107 50.9484 0.0000 0.0000 -176557.2408 0.0000 -176557.2408 -176557.2408 0.0000 16655.6772 -4777.9643 534946.2959 16655.6772 -4777.9643
ENERGY: 880 260.1262 672.5045 2824.3440 0.0000 -203370.5976 22717.6221 54.2224 0.0000 0.0000 -176841.7785 0.0000 -176841.7785 -176841.7785 0.0000 16771.7786 -4742.2557 534946.2959 16771.7786 -4742.2557
ENERGY: 900 158.7639 652.9070 2818.9421 0.0000 -203758.2183 22887.8628 56.2776 0.0000 0.0000 -177183.4649 0.0000 -177183.4649 -177183.4649 0.0000 16917.4370 -4649.5655 534946.2959 16917.4370 -4649.5655
TCL: Setting parameter constraintScaling to 0.01953125
TCL: Minimizing for 100 steps
ETITLE: TS BOND ANGLE DIHED IMPRP ELECT VDW BOUNDARY MISC KINETIC TOTAL TEMP POTENTIAL TOTAL3 TEMPAVG PRESSURE GPRESSURE VOLUME PRESSAVG GPRESSAVG
ENERGY: 900 158.7639 652.9070 2818.9421 0.0000 -203758.2183 22887.8628 28.1388 0.0000 0.0000 -177211.6038 0.0000 -177211.6038 -177211.6038 0.0000 16941.1002 -27250.8226 534946.2959 16941.1002 -27250.8226
ENERGY: 920 163.8344 648.2756 2817.5327 0.0000 -203911.8069 22950.0190 28.6926 0.0000 0.0000 -177303.4525 0.0000 -177303.4525 -177303.4525 0.0000 16953.0351 -4624.8708 534946.2959 16953.0351 -4624.8708
ENERGY: 940 178.4563 655.8950 2813.9253 0.0000 -204439.9369 23179.4325 30.6283 0.0000 0.0000 -177581.5997 0.0000 -177581.5997 -177581.5997 0.0000 17043.1311 -4590.7256 534946.2959 17043.1311 -4590.7256
ENERGY: 960 170.8098 648.1475 2815.2298 0.0000 -204556.5067 23226.6835 30.6987 0.0000 0.0000 -177664.9373 0.0000 -177664.9373 -177664.9373 0.0000 17055.3384 -4583.5365 534946.2959 17055.3384 -4583.5365
ENERGY: 980 162.3329 652.0745 2813.8226 0.0000 -204946.1335 23398.5503 31.4330 0.0000 0.0000 -177887.9200 0.0000 -177887.9200 -177887.9200 0.0000 17212.1106 -4495.9074 534946.2959 17212.1106 -4495.9074
ENERGY: 1000 173.9513 652.8986 2811.7451 0.0000 -205223.3066 23518.5216 32.4130 0.0000 0.0000 -178033.7770 0.0000 -178033.7770 -178033.7770 0.0000 17251.3035 -4488.5210 534946.2959 17251.3035 -4488.5210
TCL: Setting parameter constraintScaling to 0
TCL: Minimizing for 5000 steps
ETITLE: TS BOND ANGLE DIHED IMPRP ELECT VDW BOUNDARY MISC KINETIC TOTAL TEMP POTENTIAL TOTAL3 TEMPAVG PRESSURE GPRESSURE VOLUME PRESSAVG GPRESSAVG
ENERGY: 1000 173.9513 652.8986 2811.7451 0.0000 -205223.3066 23518.5216 0.0000 0.0000 0.0000 -178066.1900 0.0000 -178066.1900 -178066.1900 0.0000 17277.3227 -27263.7083 534946.2959 17277.3227 -27263.7083
ENERGY: 2000 169.7786 661.1015 2802.6834 0.0000 -214673.7539 27687.8272 0.0000 0.0000 0.0000 -183352.3633 0.0000 -183352.3633 -183352.3633 0.0000 19468.1220 -3326.3380 534946.2959 19468.1220 -3326.3380
ENERGY: 3000 168.3544 668.3189 2795.6886 0.0000 -217383.7314 28823.5215 0.0000 0.0000 0.0000 -184927.8479 0.0000 -184927.8479 -184927.8479 0.0000 20080.9749 -2986.7760 534946.2959 20080.9749 -2986.7760
ENERGY: 4000 165.5509 664.3637 2788.4453 0.0000 -218870.3236 29448.9800 0.0000 0.0000 0.0000 -185802.9837 0.0000 -185802.9837 -185802.9837 0.0000 20412.5072 -2805.6390 534946.2959 20412.5072 -2805.6390
ENERGY: 5000 165.4273 664.2422 2785.0292 0.0000 -219504.2234 29685.9880 0.0000 0.0000 0.0000 -186203.5366 0.0000 -186203.5366 -186203.5366 0.0000 20529.9510 -2754.1498 534946.2959 20529.9510 -2754.1498
ENERGY: 6000 165.7224 663.5967 2782.1939 0.0000 -219944.0620 29883.9685 0.0000 0.0000 0.0000 -186448.5804 0.0000 -186448.5804 -186448.5804 0.0000 20635.6188 -2694.0663 534946.2959 20635.6188 -2694.0663
