Info: SIMULATION PARAMETERS:
Info: TIMESTEP               1
Info: NUMBER OF STEPS        0
Info: STEPS PER CYCLE        10
Info: PERIODIC CELL BASIS 1  72.449 0 0
Info: PERIODIC CELL BASIS 2  0 93.247 0
Info: PERIODIC CELL BASIS 3  0 0 79.185
Info: PERIODIC CELL CENTER   -0.248 -0.156 -0.047
Info: WRAPPING WATERS AROUND PERIODIC BOUNDARIES ON OUTPUT.
Info: WRAPPING ALL CLUSTERS AROUND PERIODIC BOUNDARIES ON OUTPUT.
Info: FIRST LDB TIMESTEP     50
Info: LAST LDB TIMESTEP     -1
Info: HOM BACKGROUND SCALING 1
Info: PME BACKGROUND SCALING 1
Info: MIN ATOMS PER PATCH    40
Info: VELOCITY FILE          ../replicas/rep95/equilibration/eq1.vel
Info: CENTER OF MASS MOVING INITIALLY? NO
Info: DIELECTRIC             1
Info: EXCLUDE                SCALED ONE-FOUR
Info: 1-4 ELECTROSTATICS SCALED BY 0.833333
Info: MODIFIED 1-4 VDW PARAMETERS WILL BE USED
Info: DCD FILENAME           ../replicas/rep95/equilibration/eq2.dcd
Info: DCD FREQUENCY          5000
Info: DCD FIRST STEP         5000
Info: DCD FILE WILL CONTAIN UNIT CELL DATA
Info: XST FILENAME           ../replicas/rep95/equilibration/eq2.xst
Info: XST FREQUENCY          5000
Info: NO VELOCITY DCD OUTPUT
Info: NO FORCE DCD OUTPUT
Info: OUTPUT FILENAME        ../replicas/rep95/equilibration/eq2
Info: RESTART FILENAME       ../replicas/rep95/equilibration/eq2.restart
Info: RESTART FREQUENCY      5000
Info: BINARY RESTART FILES WILL BE USED
Info: SWITCHING ACTIVE
Info: SWITCHING ON           10
Info: SWITCHING OFF          12
Info: PAIRLIST DISTANCE      13.5
Info: PAIRLIST SHRINK RATE   0.01
Info: PAIRLIST GROW RATE     0.01
Info: PAIRLIST TRIGGER       0.3
Info: PAIRLISTS PER CYCLE    2
Info: PAIRLISTS ENABLED
Info: MARGIN                 0.48
Info: HYDROGEN GROUP CUTOFF  2.5
Info: PATCH DIMENSION        16.48
Info: ENERGY OUTPUT STEPS    500
Info: CROSSTERM ENERGY INCLUDED IN DIHEDRAL
Info: TIMING OUTPUT STEPS    5000
Info: PRESSURE OUTPUT STEPS  500
Info: HARMONIC CONSTRAINTS ACTIVE
Info: HARMONIC CONS EXP      2
Info: HARMONIC CONS SCALING  10
Info: LANGEVIN DYNAMICS ACTIVE
Info: LANGEVIN TEMPERATURE   300
Info: LANGEVIN USING BBK INTEGRATOR
Info: LANGEVIN DAMPING COEFFICIENT IS 5 INVERSE PS
Info: LANGEVIN DYNAMICS NOT APPLIED TO HYDROGENS
Info: BERENDSEN PRESSURE COUPLING ACTIVE
Info:     TARGET PRESSURE IS 1 BAR
Info:     COMPRESSIBILITY ESTIMATE IS 4.57e-05 BAR^(-1)
Info:     RELAXATION TIME IS 100 FS
Info:     APPLIED EVERY 2 STEPS
Info:     PRESSURE CONTROL IS GROUP-BASED
Info:       CELL FLUCTUATION IS ISOTROPIC
Info: PARTICLE MESH EWALD (PME) ACTIVE
Info: PME TOLERANCE               1e-06
Info: PME EWALD COEFFICIENT       0.257952
Info: PME INTERPOLATION ORDER     4
Info: PME GRID DIMENSIONS         80 96 80
Info: PME MAXIMUM GRID SPACING    1
Info: FULL ELECTROSTATIC EVALUATION FREQUENCY      2
Info: USING VERLET I (r-RESPA) MTS SCHEME.
Info: C1 SPLITTING OF LONG RANGE ELECTROSTATICS
Info: PLACING ATOMS IN PATCHES BY HYDROGEN GROUPS
Info: RIGID BONDS TO HYDROGEN : WATER
Info:         ERROR TOLERANCE : 1e-05
Info:          MAX ITERATIONS : 100
Info: RIGID WATER USING SETTLE ALGORITHM
Info: RANDOM NUMBER SEED     1503701152
Info: USE HYDROGEN BONDS?    NO
Info: Using AMBER format force field!
Info: AMBER PARM FILE        ../build/complex.top
Info: COORDINATE PDB         ../replicas/rep95/equilibration/eq1.coor
Info: Exclusions in PARM file will be ignored!
Info: SCNB (VDW SCALING)     2
Info: USING ARITHMETIC MEAN TO COMBINE L-J SIGMA PARAMETERS
Info: SUMMARY OF PARAMETERS:
Info: 71 BONDS
Info: 145 ANGLES
Info:   145 HARMONIC
Info:   0 COSINE-BASED
Info: 76 DIHEDRAL
Info: 0 IMPROPER
Info: 0 CROSSTERM
Info: 0 VDW
Info: 190 VDW_PAIRS
Info: 0 NBTHOLE_PAIRS
Info: STRUCTURE SUMMARY:
Info: 49394 ATOMS
Info: 49448 BONDS
Info: 8698 ANGLES
Info: 18780 DIHEDRALS
Info: 0 IMPROPERS
Info: 0 CROSSTERMS
Info: 0 EXCLUSIONS
Info: 2336 CONSTRAINTS
Info: 44667 RIGID BONDS
Info: 103515 DEGREES OF FREEDOM
Info: 17225 HYDROGEN GROUPS
Info: 4 ATOMS IN LARGEST HYDROGEN GROUP
Info: 17225 MIGRATION GROUPS
Info: 4 ATOMS IN LARGEST MIGRATION GROUP
Info: TOTAL MASS = 301478 amu
Info: TOTAL CHARGE = 1.00115e-05 e
Info: MASS DENSITY = 0.935846 g/cm^3
Info: ATOM DENSITY = 0.0923345 atoms/A^3
Info: ADDED 70656 IMPLICIT EXCLUSIONS
Info: NONBONDED TABLE R-SQUARED SPACING: 0.0625
Info: NONBONDED TABLE SIZE: 769 POINTS
Info: REMOVING COM VELOCITY 0.0145837 0.00296199 -0.00794107
TCL: Running for 5000 steps
ETITLE: TS BOND ANGLE DIHED IMPRP ELECT VDW BOUNDARY MISC KINETIC TOTAL TEMP POTENTIAL TOTAL3 TEMPAVG PRESSURE GPRESSURE VOLUME PRESSAVG GPRESSAVG
ENERGY: 0 400.9512 1219.5549 2927.1947 0.0000 -212939.0594 29693.8736 0.0000 0.0000 10019.1743 -168678.3107 97.4135 -178697.4850 -168668.6948 97.4135 -2320.2602 -2421.8844 534946.2959 -2320.2602 -2421.8844
ENERGY: 1000 1232.8464 1959.5411 3096.0047 0.0000 -193730.2536 26603.7068 750.8086 0.0000 24245.2687 -135842.0774 235.7296 -160087.3461 -135815.6400 219.2663 6.0364 21.5427 522430.5414 -1.3441 -1.4390
ENERGY: 2000 1428.4374 2200.5024 3150.3814 0.0000 -183942.0390 23169.0896 803.5653 0.0000 27902.9863 -125287.0766 271.2925 -153190.0629 -125238.5099 264.5961 -129.3758 1.5151 516466.5799 -22.4698 -23.1226
ENERGY: 3000 1552.8208 2243.9727 3116.0100 0.0000 -178827.4974 21354.9233 796.2795 0.0000 29698.2793 -120065.2118 288.7476 -149763.4911 -120036.8234 285.2337 -2.2456 -4.5346 511635.9525 -1.7258 -1.5024
ENERGY: 4000 1585.2075 2225.6284 3156.9743 0.0000 -176654.5525 20911.7188 810.2557 0.0000 30443.2904 -117521.4775 295.9911 -147964.7679 -117485.4822 293.7524 39.7472 -1.4171 508376.4126 -3.9013 -3.6341
ENERGY: 5000 1536.9198 2286.2457 3145.8690 0.0000 -175692.1695 20342.1222 812.4480 0.0000 30632.4063 -116936.1585 297.8298 -147568.5648 -116897.2678 296.9587 16.8780 -8.6109 506414.4816 9.0629 9.4404
TCL: Setting parameter constraintScaling to 5.0
TCL: Running for 5000 steps
ETITLE: TS BOND ANGLE DIHED IMPRP ELECT VDW BOUNDARY MISC KINETIC TOTAL TEMP POTENTIAL TOTAL3 TEMPAVG PRESSURE GPRESSURE VOLUME PRESSAVG GPRESSAVG
ENERGY: 5000 1536.9198 2286.2457 3145.8690 0.0000 -175692.1695 20342.1222 406.2240 0.0000 30630.3767 -117344.4121 297.8101 -147974.7888 -117305.0757 297.8101 -20.4061 -46.0696 506414.4816 -20.4061 -46.0696
ENERGY: 6000 1644.3529 2358.4590 3159.0663 0.0000 -175713.7589 20550.4376 628.2141 0.0000 30599.4371 -116773.7919 297.5093 -147373.2290 -116713.4846 298.8266 -13.8799 21.7589 504614.1877 -5.8543 -5.8701
ENERGY: 7000 1633.3096 2297.3156 3168.1797 0.0000 -175606.6346 20259.6639 671.0579 0.0000 30929.7118 -116647.3961 300.7205 -147577.1079 -116601.6421 299.7350 -40.0029 -6.4966 502939.1423 -11.0022 -10.9866
ENERGY: 8000 1619.8520 2350.3863 3162.8236 0.0000 -175319.1291 20068.5319 655.1093 0.0000 30932.3024 -116530.1235 300.7456 -147462.4259 -116475.7902 300.0249 -35.7463 26.0868 501365.4215 -1.3955 -1.2396
ENERGY: 9000 1574.3965 2328.3532 3149.8135 0.0000 -175103.7188 20032.7861 653.1883 0.0000 30924.5927 -116440.5886 300.6707 -147365.1812 -116394.5927 299.9656 19.8268 -15.7391 502741.8699 8.2477 8.3467
ENERGY: 10000 1583.7288 2296.7204 3155.8477 0.0000 -175345.8044 20032.5094 633.6288 0.0000 30893.1060 -116750.2633 300.3645 -147643.3693 -116711.3383 299.9257 38.6466 3.3392 502009.9573 0.9190 0.6873
TCL: Setting parameter constraintScaling to 2.5
TCL: Running for 5000 steps
ETITLE: TS BOND ANGLE DIHED IMPRP ELECT VDW BOUNDARY MISC KINETIC TOTAL TEMP POTENTIAL TOTAL3 TEMPAVG PRESSURE GPRESSURE VOLUME PRESSAVG GPRESSAVG
ENERGY: 10000 1583.7288 2296.7204 3155.8477 0.0000 -175345.8044 20032.5094 316.8144 0.0000 30891.0649 -117069.1188 300.3447 -147960.1837 -117025.6412 300.3447 4.9019 -32.7958 502009.9573 4.9019 -32.7958
ENERGY: 11000 1673.8995 2366.6170 3161.8465 0.0000 -175695.2996 20099.9632 494.9174 0.0000 30777.5815 -117120.4744 299.2413 -147898.0559 -117075.0345 299.0590 -36.4196 41.1669 501385.5649 0.9019 0.7958
ENERGY: 12000 1649.5104 2318.8905 3211.0471 0.0000 -176175.1582 20369.1450 527.4966 0.0000 30761.0566 -117338.0119 299.0807 -148099.0685 -117302.2850 299.4148 -12.1704 75.0082 499842.4837 -6.1237 -5.8565
ENERGY: 13000 1630.9123 2352.8279 3203.8326 0.0000 -175424.2329 19914.3499 485.1817 0.0000 30729.7726 -117107.3559 298.7765 -147837.1285 -117057.4570 299.3757 -50.6603 27.4951 500512.2093 16.0483 16.4197
ENERGY: 14000 1561.2070 2336.2014 3164.2769 0.0000 -175737.1229 20056.9390 528.5672 0.0000 30699.6132 -117390.3181 298.4833 -148089.9313 -117349.3617 298.4250 -62.5642 26.1111 499323.8307 16.3213 16.4506
ENERGY: 15000 1552.7474 2359.7966 3170.4937 0.0000 -176311.2482 20525.4699 532.7472 0.0000 30769.6597 -117400.3339 299.1643 -148169.9935 -117362.6422 298.2140 -20.5251 -12.0991 499434.7550 -2.9537 -2.5506
TCL: Setting parameter constraintScaling to 1.25
TCL: Running for 5000 steps
ETITLE: TS BOND ANGLE DIHED IMPRP ELECT VDW BOUNDARY MISC KINETIC TOTAL TEMP POTENTIAL TOTAL3 TEMPAVG PRESSURE GPRESSURE VOLUME PRESSAVG GPRESSAVG
ENERGY: 15000 1552.7474 2359.7966 3170.4937 0.0000 -176311.2483 20525.4699 266.3736 0.0000 30767.6170 -117668.7501 299.1445 -148436.3672 -117625.4137 299.1445 50.0621 56.4580 499434.7550 50.0621 56.4580
ENERGY: 16000 1614.3852 2380.3061 3166.0510 0.0000 -175959.6113 20310.2313 390.4225 0.0000 30715.2979 -117382.9173 298.6358 -148098.2152 -117336.3784 299.5192 -75.8860 -12.5321 500085.5589 18.0330 18.0396
ENERGY: 17000 1642.1639 2360.4490 3193.5514 0.0000 -175831.7592 20072.8084 422.8947 0.0000 31017.9956 -117121.8962 301.5788 -148139.8918 -117068.2484 299.5875 -47.4798 -31.0182 499115.4754 -1.5801 -1.8382
ENERGY: 18000 1603.0184 2336.3034 3227.1575 0.0000 -175679.3582 20195.3669 435.4349 0.0000 30850.2989 -117031.7782 299.9483 -147882.0771 -116974.8818 300.5485 -44.1706 -29.3556 498719.0885 -1.5496 -2.2171
ENERGY: 19000 1615.4511 2399.3743 3207.4700 0.0000 -175707.0408 19962.7144 405.2415 0.0000 30911.0695 -117205.7199 300.5392 -148116.7893 -117153.4567 300.5639 29.1355 63.2017 498231.4942 -7.6008 -7.7118
ENERGY: 20000 1622.1242 2413.0650 3190.6259 0.0000 -175976.9367 20137.3310 408.0739 0.0000 30846.2298 -117359.4870 299.9088 -148205.7167 -117305.5042 299.7730 0.0504 -2.8745 499019.0877 7.8275 7.6484
TCL: Setting parameter constraintScaling to 0.625
TCL: Running for 5000 steps
ETITLE: TS BOND ANGLE DIHED IMPRP ELECT VDW BOUNDARY MISC KINETIC TOTAL TEMP POTENTIAL TOTAL3 TEMPAVG PRESSURE GPRESSURE VOLUME PRESSAVG GPRESSAVG
ENERGY: 20000 1622.1242 2413.0650 3190.6259 0.0000 -175976.9367 20137.3310 204.0369 0.0000 30844.1988 -117565.5548 299.8890 -148409.7536 -117522.2258 299.8890 -7.8907 -10.4635 499019.0877 -7.8907 -10.4635
ENERGY: 21000 1587.1745 2403.6323 3197.8061 0.0000 -176207.0751 20373.7241 316.5334 0.0000 30735.1307 -117593.0741 298.8286 -148328.2047 -117539.6819 299.9226 -53.3860 43.8960 498488.1946 4.1726 4.1691
ENERGY: 22000 1627.4868 2441.1952 3192.9438 0.0000 -176189.6556 20186.8620 318.2953 0.0000 30688.3399 -117734.5326 298.3737 -148422.8726 -117702.1542 298.6826 -18.1170 36.6041 498063.3637 -7.7692 -7.9563
ENERGY: 23000 1676.1450 2371.3622 3196.0656 0.0000 -175957.7523 20221.4549 319.4636 0.0000 30851.9527 -117321.3083 299.9644 -148173.2611 -117262.1149 299.4143 -82.7520 8.3140 497484.7453 7.1083 7.0516
ENERGY: 24000 1613.6553 2423.2616 3235.6594 0.0000 -176097.0181 20147.5589 338.7498 0.0000 30845.7938 -117492.3394 299.9045 -148338.1333 -117433.8573 299.4483 -59.5354 -8.4085 498925.0240 11.8308 12.2867
ENERGY: 25000 1592.9197 2361.6745 3203.2190 0.0000 -175949.3622 19986.9514 312.1284 0.0000 30932.4810 -117559.9883 300.7474 -148492.4692 -117514.4071 298.4630 -44.3188 -73.6350 498538.7073 -1.9744 -1.4268
TCL: Setting parameter constraintScaling to 0.3125
TCL: Running for 5000 steps
ETITLE: TS BOND ANGLE DIHED IMPRP ELECT VDW BOUNDARY MISC KINETIC TOTAL TEMP POTENTIAL TOTAL3 TEMPAVG PRESSURE GPRESSURE VOLUME PRESSAVG GPRESSAVG
ENERGY: 25000 1592.9197 2361.6745 3203.2190 0.0000 -175949.3622 19986.9514 156.0642 0.0000 30930.4099 -117718.1235 300.7272 -148648.5334 -117674.6409 300.7272 -60.4239 -93.3428 498538.7073 -60.4239 -93.3428
ENERGY: 26000 1661.6774 2469.1194 3207.6085 0.0000 -176185.1972 20273.0355 240.5375 0.0000 30984.1531 -117349.0658 301.2498 -148333.2190 -117296.4542 299.9450 -32.3143 77.7289 496826.0915 -7.1934 -6.7150
ENERGY: 27000 1627.4094 2399.6466 3192.3361 0.0000 -175726.3474 20069.0856 244.8250 0.0000 30635.6020 -117557.4427 297.8609 -148193.0447 -117505.8528 299.0351 -157.2968 -75.0288 498138.7343 -1.6955 -2.1008
ENERGY: 28000 1702.8907 2444.8776 3191.5668 0.0000 -175827.6899 20059.8941 268.6251 0.0000 30753.6713 -117406.1643 299.0089 -148159.8356 -117354.7610 300.1568 -158.7473 -43.9455 497151.2879 -8.4465 -8.2769
ENERGY: 29000 1599.4562 2471.4558 3188.4697 0.0000 -175270.0083 19836.4102 244.2388 0.0000 30733.0371 -117196.9405 298.8082 -147929.9776 -117154.2763 299.9644 -21.8891 22.2227 496888.4205 -0.0784 0.3808
ENERGY: 30000 1649.6224 2431.2669 3188.0895 0.0000 -175506.7939 19930.5598 271.5967 0.0000 30723.5500 -117312.1086 298.7160 -148035.6587 -117264.8999 300.2169 -111.6120 -23.8944 497836.6598 4.8996 5.1358
TCL: Setting parameter constraintScaling to 0.15625
TCL: Running for 5000 steps
ETITLE: TS BOND ANGLE DIHED IMPRP ELECT VDW BOUNDARY MISC KINETIC TOTAL TEMP POTENTIAL TOTAL3 TEMPAVG PRESSURE GPRESSURE VOLUME PRESSAVG GPRESSAVG
ENERGY: 30000 1649.6224 2431.2669 3188.0895 0.0000 -175506.7939 19930.5598 135.7984 0.0000 30721.4987 -117449.9584 298.6961 -148171.4570 -117407.2047 298.6961 -128.8278 -41.9505 497836.6598 -128.8278 -41.9505
ENERGY: 31000 1575.7632 2441.0094 3222.1109 0.0000 -175621.3142 19966.4297 198.1419 0.0000 30785.6280 -117432.2309 299.3196 -148217.8589 -117393.8169 299.8877 -95.8193 -45.2911 498037.2700 19.6665 19.6211
ENERGY: 32000 1688.3610 2464.4375 3185.7603 0.0000 -175989.0087 20108.6828 212.9743 0.0000 30653.2748 -117675.5181 298.0327 -148328.7928 -117634.5463 299.4114 -32.5827 -14.0360 498544.6570 12.8936 12.9200
ENERGY: 33000 1601.4898 2440.6493 3218.2686 0.0000 -176006.4990 20032.7942 208.2948 0.0000 30956.7404 -117548.2621 300.9832 -148505.0024 -117509.6351 299.0851 8.0926 33.6612 496585.7338 -5.7590 -6.0280
ENERGY: 34000 1672.0631 2384.3972 3219.2836 0.0000 -176093.6709 20147.0654 205.9397 0.0000 30588.9560 -117875.9659 297.4074 -148464.9219 -117824.1090 299.1860 -153.1865 -39.2294 497742.6652 12.8992 12.9730
ENERGY: 35000 1619.1321 2401.6979 3238.9167 0.0000 -176048.0983 20088.2510 198.8765 0.0000 30923.8647 -117577.3595 300.6636 -148501.2242 -117528.5842 298.7156 -25.6780 -0.9681 498103.3213 20.4922 20.8738
TCL: Setting parameter constraintScaling to 0.078125
TCL: Running for 5000 steps
ETITLE: TS BOND ANGLE DIHED IMPRP ELECT VDW BOUNDARY MISC KINETIC TOTAL TEMP POTENTIAL TOTAL3 TEMPAVG PRESSURE GPRESSURE VOLUME PRESSAVG GPRESSAVG
ENERGY: 35000 1619.1321 2401.6979 3238.9167 0.0000 -176048.0983 20088.2510 99.4382 0.0000 30921.8191 -117678.8433 300.6437 -148600.6624 -117633.6291 300.6437 -34.7828 -20.8872 498103.3213 -34.7828 -20.8872
ENERGY: 36000 1655.1311 2469.1003 3199.2230 0.0000 -176259.8637 20162.7832 145.9851 0.0000 30719.8854 -117907.7555 298.6804 -148627.6408 -117871.0589 299.2137 -9.1544 -54.3966 496069.8059 -7.8810 -8.0961
ENERGY: 37000 1635.6968 2345.0520 3207.7042 0.0000 -175744.8640 19941.2804 148.7445 0.0000 30822.9016 -117643.4846 299.6820 -148466.3861 -117585.1610 299.4062 -47.1395 -22.5347 497594.5671 2.8723 3.0954
ENERGY: 38000 1644.3221 2445.9602 3200.1365 0.0000 -176026.4266 20062.4817 150.3592 0.0000 31090.1831 -117432.9837 302.2807 -148523.1668 -117385.9189 300.1805 -35.7195 17.9139 497400.0456 -5.8351 -6.1989
ENERGY: 39000 1675.2915 2342.2975 3210.6329 0.0000 -175867.3574 20225.4146 152.7016 0.0000 30804.6810 -117456.3383 299.5048 -148261.0193 -117416.9624 300.2974 94.3628 130.4944 498290.0393 4.4854 4.0978
ENERGY: 40000 1637.5189 2338.7778 3220.8263 0.0000 -176007.2142 20242.9733 168.1698 0.0000 30497.5882 -117901.3598 296.5190 -148398.9480 -117851.0549 299.6572 88.4637 95.1396 496814.4379 -11.7262 -11.3280
TCL: Setting parameter constraintScaling to 0.0390625
TCL: Running for 5000 steps
ETITLE: TS BOND ANGLE DIHED IMPRP ELECT VDW BOUNDARY MISC KINETIC TOTAL TEMP POTENTIAL TOTAL3 TEMPAVG PRESSURE GPRESSURE VOLUME PRESSAVG GPRESSAVG
ENERGY: 40000 1637.5189 2338.7778 3220.8263 0.0000 -176007.2141 20242.9733 84.0849 0.0000 30495.5121 -117987.5208 296.4989 -148483.0329 -117943.1300 296.4989 79.4402 93.3643 496814.4379 79.4402 93.3643
ENERGY: 41000 1658.3319 2411.5729 3180.3851 0.0000 -175974.2571 20036.3768 111.4035 0.0000 30597.7239 -117978.4630 297.4926 -148576.1870 -117944.1057 297.7358 -47.3565 -69.2141 496274.2518 4.3252 4.6071
ENERGY: 42000 1628.5667 2394.4324 3196.7262 0.0000 -175870.3078 19899.4488 120.8531 0.0000 30735.4005 -117894.8801 298.8312 -148630.2806 -117854.9890 299.0838 -130.9774 -80.6263 497061.5320 -13.1842 -13.1981
ENERGY: 43000 1680.9273 2408.5832 3188.6650 0.0000 -176302.8677 20191.4046 125.7422 0.0000 30686.7857 -118020.7597 298.3586 -148707.5454 -117979.5747 298.4455 -71.9262 -62.9681 497341.7166 1.6246 1.6785
ENERGY: 44000 1653.4099 2384.6062 3243.9781 0.0000 -176095.0270 20069.9238 129.1794 0.0000 30554.5301 -118059.3995 297.0727 -148613.9296 -118016.0318 299.3328 30.9722 0.9073 497080.8050 2.0505 2.8446
ENERGY: 45000 1594.8564 2371.1321 3233.3799 0.0000 -175489.7498 19806.3182 135.9788 0.0000 30905.5153 -117442.5692 300.4852 -148348.0844 -117392.0121 299.2989 -60.9978 -55.9837 498136.0424 2.8483 3.6584
TCL: Setting parameter constraintScaling to 0.01953125
TCL: Running for 5000 steps
ETITLE: TS BOND ANGLE DIHED IMPRP ELECT VDW BOUNDARY MISC KINETIC TOTAL TEMP POTENTIAL TOTAL3 TEMPAVG PRESSURE GPRESSURE VOLUME PRESSAVG GPRESSAVG
ENERGY: 45000 1594.8564 2371.1321 3233.3799 0.0000 -175489.7498 19806.3182 67.9894 0.0000 30903.4690 -117512.6049 300.4653 -148416.0738 -117471.9961 300.4653 -77.6633 -71.5631 498136.0424 -77.6633 -71.5631
ENERGY: 46000 1633.0967 2422.9557 3198.3460 0.0000 -175953.5399 20063.3598 81.3987 0.0000 31072.7264 -117481.6566 302.1109 -148554.3830 -117440.6860 300.0245 -45.3723 7.0245 497882.5723 2.6422 2.7563
ENERGY: 47000 1639.1369 2435.3600 3218.2822 0.0000 -175827.5276 20171.1908 87.2904 0.0000 30698.0248 -117578.2425 298.4678 -148276.2673 -117527.8917 300.1107 70.3940 39.7984 496430.5694 -12.7759 -12.8142
ENERGY: 48000 1655.7091 2409.8470 3193.2047 0.0000 -176012.5535 20177.0896 85.4812 0.0000 30735.3780 -117755.8439 298.8310 -148491.2219 -117707.2975 300.4381 36.4687 4.8147 496087.7021 -4.4220 -4.5968
ENERGY: 49000 1684.2423 2489.2856 3198.7625 0.0000 -175659.8782 19818.5416 92.1839 0.0000 30798.2813 -117578.5810 299.4426 -148376.8623 -117528.9731 301.2867 -96.2520 -25.3074 497363.8529 6.9097 6.4768
ENERGY: 50000 1645.6749 2392.9653 3179.0849 0.0000 -175143.5482 19810.3269 85.9930 0.0000 31247.6216 -116781.8816 303.8114 -148029.5032 -116727.7586 301.5468 -69.9592 -86.4787 498192.1804 2.0733 2.1662
TCL: Setting parameter constraintScaling to 0
TCL: Running for 5000 steps
ETITLE: TS BOND ANGLE DIHED IMPRP ELECT VDW BOUNDARY MISC KINETIC TOTAL TEMP POTENTIAL TOTAL3 TEMPAVG PRESSURE GPRESSURE VOLUME PRESSAVG GPRESSAVG
ENERGY: 50000 1645.6749 2392.9653 3179.0849 0.0000 -175143.5482 19810.3269 0.0000 0.0000 31245.5990 -116869.8971 303.7917 -148115.4961 -116824.5929 303.7917 -92.4468 -98.7101 498192.1804 -92.4468 -98.7101
ENERGY: 51000 1618.6295 2410.9202 3249.7628 0.0000 -175577.4992 19924.4768 0.0000 0.0000 30946.5313 -117427.1785 300.8840 -148373.7099 -117389.3606 301.8964 75.5709 14.1021 497069.0904 1.6828 1.4928
ENERGY: 52000 1591.7930 2411.9447 3206.7691 0.0000 -175708.0767 19961.6789 0.0000 0.0000 30780.1314 -117755.7597 299.2661 -148535.8911 -117710.5816 300.3310 -120.0464 -31.7402 498047.8304 13.8036 13.9659
ENERGY: 53000 1623.0158 2376.4215 3230.5786 0.0000 -175817.1838 20002.2984 0.0000 0.0000 30766.6922 -117818.1772 299.1355 -148584.8695 -117770.1506 299.1381 21.5004 20.3597 496876.3271 0.7476 0.9289
ENERGY: 54000 1636.2726 2462.1912 3213.6480 0.0000 -176279.3864 20173.3339 0.0000 0.0000 30829.8907 -117964.0500 299.7499 -148793.9407 -117914.2986 299.8433 -44.9616 -28.6431 494835.6708 2.4170 2.9923
ENERGY: 55000 1671.7750 2365.8978 3205.5357 0.0000 -175953.2961 20002.4997 0.0000 0.0000 30929.9606 -117777.6271 300.7229 -148707.5878 -117741.5173 299.5946 78.6752 43.0295 496790.8415 1.1551 1.1911
