Info: SIMULATION PARAMETERS:
Info: TIMESTEP               2
Info: NUMBER OF STEPS        0
Info: STEPS PER CYCLE        10
Info: PERIODIC CELL BASIS 1  72.449 0 0
Info: PERIODIC CELL BASIS 2  0 93.247 0
Info: PERIODIC CELL BASIS 3  0 0 79.185
Info: PERIODIC CELL CENTER   -0.248 -0.156 -0.047
Info: WRAPPING WATERS AROUND PERIODIC BOUNDARIES ON OUTPUT.
Info: WRAPPING ALL CLUSTERS AROUND PERIODIC BOUNDARIES ON OUTPUT.
Info: FIRST LDB TIMESTEP     50
Info: LAST LDB TIMESTEP     -1
Info: HOM BACKGROUND SCALING 1
Info: PME BACKGROUND SCALING 1
Info: MIN ATOMS PER PATCH    40
Info: INITIAL TEMPERATURE    0
Info: CENTER OF MASS MOVING INITIALLY? NO
Info: DIELECTRIC             1
Info: EXCLUDE                SCALED ONE-FOUR
Info: 1-4 ELECTROSTATICS SCALED BY 0.833333
Info: MODIFIED 1-4 VDW PARAMETERS WILL BE USED
Info: NO DCD TRAJECTORY OUTPUT
Info: NO EXTENDED SYSTEM TRAJECTORY OUTPUT
Info: NO VELOCITY DCD OUTPUT
Info: NO FORCE DCD OUTPUT
Info: OUTPUT FILENAME        ../replicas/rep56/equilibration/eq0
Info: NO RESTART FILE
Info: SWITCHING ACTIVE
Info: SWITCHING ON           10
Info: SWITCHING OFF          12
Info: PAIRLIST DISTANCE      13.5
Info: PAIRLIST SHRINK RATE   0.01
Info: PAIRLIST GROW RATE     0.01
Info: PAIRLIST TRIGGER       0.3
Info: PAIRLISTS PER CYCLE    2
Info: PAIRLISTS ENABLED
Info: MARGIN                 0
Info: HYDROGEN GROUP CUTOFF  2.5
Info: PATCH DIMENSION        16
Info: ENERGY OUTPUT STEPS    500
Info: CROSSTERM ENERGY INCLUDED IN DIHEDRAL
Info: TIMING OUTPUT STEPS    5000
Info: PRESSURE OUTPUT STEPS  500
Info: HARMONIC CONSTRAINTS ACTIVE
Info: HARMONIC CONS EXP      2
Info: HARMONIC CONS SCALING  10
Info: CONJUGATE GRADIENT MINIMIZATION ACTIVE
Info: LINE MINIMIZATION GOAL = 0.001
Info: BABY STEP SIZE = 0.01
Info: TINY STEP SIZE = 1e-06
Info: PARTICLE MESH EWALD (PME) ACTIVE
Info: PME TOLERANCE               1e-06
Info: PME EWALD COEFFICIENT       0.257952
Info: PME INTERPOLATION ORDER     4
Info: PME GRID DIMENSIONS         80 96 80
Info: PME MAXIMUM GRID SPACING    1
Info: FULL ELECTROSTATIC EVALUATION FREQUENCY      2
Info: USING VERLET I (r-RESPA) MTS SCHEME.
Info: C1 SPLITTING OF LONG RANGE ELECTROSTATICS
Info: PLACING ATOMS IN PATCHES BY HYDROGEN GROUPS
Info: RIGID BONDS TO HYDROGEN : ALL
Info:         ERROR TOLERANCE : 1e-05
Info:          MAX ITERATIONS : 100
Info: RIGID WATER USING SETTLE ALGORITHM
Info: RANDOM NUMBER SEED     1503690976
Info: USE HYDROGEN BONDS?    NO
Info: Using AMBER format force field!
Info: AMBER PARM FILE        ../build/complex.top
Info: COORDINATE PDB         ../build/complex.pdb
Info: Exclusions in PARM file will be ignored!
Info: SCNB (VDW SCALING)     2
Info: USING ARITHMETIC MEAN TO COMBINE L-J SIGMA PARAMETERS
Info: SUMMARY OF PARAMETERS:
Info: 71 BONDS
Info: 145 ANGLES
Info: 76 DIHEDRAL
Info: 0 IMPROPER
Info: 0 CROSSTERM
Info: 0 VDW
Info: 190 VDW_PAIRS
Info: 0 NBTHOLE_PAIRS
Info: STRUCTURE SUMMARY:
Info: 49394 ATOMS
Info: 49448 BONDS
Info: 8698 ANGLES
Info: 18780 DIHEDRALS
Info: 0 IMPROPERS
Info: 0 CROSSTERMS
Info: 0 EXCLUSIONS
Info: 2336 CONSTRAINTS
Info: 47058 RIGID BONDS
Info: 101124 DEGREES OF FREEDOM
Info: 17225 HYDROGEN GROUPS
Info: 4 ATOMS IN LARGEST HYDROGEN GROUP
Info: 17225 MIGRATION GROUPS
Info: 4 ATOMS IN LARGEST MIGRATION GROUP
Info: TOTAL MASS = 301478 amu
Info: TOTAL CHARGE = 1.00115e-05 e
Info: MASS DENSITY = 0.935846 g/cm^3
Info: ATOM DENSITY = 0.0923345 atoms/A^3
Info: ADDED 70656 IMPLICIT EXCLUSIONS
Info: NONBONDED TABLE R-SQUARED SPACING: 0.0625
Info: NONBONDED TABLE SIZE: 769 POINTS
Info: REMOVING COM VELOCITY 0 0 0
TCL: Minimizing for 100 steps
ETITLE: TS BOND ANGLE DIHED IMPRP ELECT VDW BOUNDARY MISC KINETIC TOTAL TEMP POTENTIAL TOTAL3 TEMPAVG PRESSURE GPRESSURE VOLUME PRESSAVG GPRESSAVG
ENERGY: 0 155.4176 1012.2698 2855.7272 0.0000 -154496.7910 207729.2052 0.0468 0.0000 0.0000 57255.8756 0.0000 57255.8756 57255.8756 0.0000 116350.2532 86546.1670 534946.2959 116350.2532 86546.1670
ENERGY: 20 304.7553 935.7912 2893.4663 0.0000 -158672.9406 17936.6594 143.9454 0.0000 0.0000 -136458.3231 0.0000 -136458.3231 -136458.3231 0.0000 16523.9386 -239.4559 534946.2959 16523.9386 -239.4559
ENERGY: 40 198.7418 799.5724 2896.9273 0.0000 -162811.4523 16417.9539 221.3029 0.0000 0.0000 -142276.9541 0.0000 -142276.9541 -142276.9541 0.0000 15011.2706 -2135.4694 534946.2959 15011.2706 -2135.4694
ENERGY: 60 130.5286 715.3441 2898.2165 0.0000 -167496.1522 15446.7547 315.2795 0.0000 0.0000 -147990.0288 0.0000 -147990.0288 -147990.0288 0.0000 13793.8848 -3799.3971 534946.2959 13793.8848 -3799.3971
ENERGY: 80 431.2747 765.6309 2904.3784 0.0000 -169937.5256 15121.1527 372.0122 0.0000 0.0000 -150343.0767 0.0000 -150343.0767 -150343.0767 0.0000 13270.3320 -4577.2434 534946.2959 13270.3320 -4577.2434
ENERGY: 100 119.3877 710.0601 2905.2589 0.0000 -171259.7146 14991.7867 387.3612 0.0000 0.0000 -152145.8600 0.0000 -152145.8600 -152145.8600 0.0000 13056.2653 -4908.1730 534946.2959 13056.2653 -4908.1730
TCL: Setting parameter constraintScaling to 5.0
TCL: Minimizing for 100 steps
ETITLE: TS BOND ANGLE DIHED IMPRP ELECT VDW BOUNDARY MISC KINETIC TOTAL TEMP POTENTIAL TOTAL3 TEMPAVG PRESSURE GPRESSURE VOLUME PRESSAVG GPRESSAVG
ENERGY: 100 119.3877 710.0601 2905.2589 0.0000 -171259.7146 14991.7867 193.6806 0.0000 0.0000 -152339.5406 0.0000 -152339.5406 -152339.5406 0.0000 13672.7714 -23021.8191 534946.2959 13672.7714 -23021.8191
ENERGY: 120 108.8865 687.5855 2912.9268 0.0000 -172865.8720 14798.2711 281.1915 0.0000 0.0000 -154077.0106 0.0000 -154077.0106 -154077.0106 0.0000 13218.2562 -4906.0139 534946.2959 13218.2562 -4906.0139
ENERGY: 140 309.4726 708.8748 2913.8026 0.0000 -174236.5735 14731.4865 326.6366 0.0000 0.0000 -155246.3004 0.0000 -155246.3004 -155246.3004 0.0000 12971.5367 -5303.2212 534946.2959 12971.5367 -5303.2212
ENERGY: 160 265.0373 683.0565 2923.1624 0.0000 -176274.1126 14757.2638 382.8439 0.0000 0.0000 -157262.7486 0.0000 -157262.7486 -157262.7486 0.0000 12741.1136 -5738.8523 534946.2959 12741.1136 -5738.8523
ENERGY: 180 269.0261 744.0941 2928.5663 0.0000 -178994.4344 15023.3529 473.2521 0.0000 0.0000 -159556.1428 0.0000 -159556.1428 -159556.1428 0.0000 12521.6559 -6219.8020 534946.2959 12521.6559 -6219.8020
ENERGY: 200 238.7679 694.1071 2941.3544 0.0000 -181555.5922 15586.8947 546.2543 0.0000 0.0000 -161548.2138 0.0000 -161548.2138 -161548.2138 0.0000 12582.6342 -6426.9135 534946.2959 12582.6342 -6426.9135
TCL: Setting parameter constraintScaling to 2.5
TCL: Minimizing for 100 steps
ETITLE: TS BOND ANGLE DIHED IMPRP ELECT VDW BOUNDARY MISC KINETIC TOTAL TEMP POTENTIAL TOTAL3 TEMPAVG PRESSURE GPRESSURE VOLUME PRESSAVG GPRESSAVG
ENERGY: 200 238.7679 694.1071 2941.3544 0.0000 -181555.5922 15586.8947 273.1271 0.0000 0.0000 -161821.3409 0.0000 -161821.3409 -161821.3409 0.0000 13229.5259 -25657.6625 534946.2959 13229.5259 -25657.6625
ENERGY: 220 246.8036 677.9780 2933.0105 0.0000 -182077.1149 15471.5227 337.8294 0.0000 0.0000 -162409.9707 0.0000 -162409.9707 -162409.9707 0.0000 12970.8718 -6093.4322 534946.2959 12970.8718 -6093.4322
ENERGY: 240 140.4334 666.6692 2928.6101 0.0000 -182465.3983 15494.3214 343.7374 0.0000 0.0000 -162891.6268 0.0000 -162891.6268 -162891.6268 0.0000 13034.2044 -6110.8660 534946.2959 13034.2044 -6110.8660
ENERGY: 260 232.7457 702.5746 2922.5487 0.0000 -183748.2295 15757.5735 379.0523 0.0000 0.0000 -163753.7346 0.0000 -163753.7346 -163753.7346 0.0000 13014.2580 -6240.6262 534946.2959 13014.2580 -6240.6262
ENERGY: 280 203.5859 704.0755 2917.7548 0.0000 -185468.7727 16246.0214 457.3332 0.0000 0.0000 -164940.0019 0.0000 -164940.0019 -164940.0019 0.0000 13144.9759 -6345.4836 534946.2959 13144.9759 -6345.4836
ENERGY: 300 126.5478 639.0477 2916.3361 0.0000 -186083.7641 16441.7839 480.4094 0.0000 0.0000 -165479.6392 0.0000 -165479.6392 -165479.6392 0.0000 13207.2448 -6344.6632 534946.2959 13207.2448 -6344.6632
TCL: Setting parameter constraintScaling to 1.25
TCL: Minimizing for 100 steps
ETITLE: TS BOND ANGLE DIHED IMPRP ELECT VDW BOUNDARY MISC KINETIC TOTAL TEMP POTENTIAL TOTAL3 TEMPAVG PRESSURE GPRESSURE VOLUME PRESSAVG GPRESSAVG
ENERGY: 300 126.5478 639.0477 2916.3361 0.0000 -186083.7641 16441.7839 240.2047 0.0000 0.0000 -165719.8439 0.0000 -165719.8439 -165719.8439 0.0000 13655.1095 -26353.6632 534946.2959 13655.1095 -26353.6632
ENERGY: 320 132.2285 624.6804 2911.1737 0.0000 -186663.5261 16578.2904 272.9422 0.0000 0.0000 -166144.2109 0.0000 -166144.2109 -166144.2109 0.0000 13628.1958 -5977.8740 534946.2959 13628.1958 -5977.8740
ENERGY: 340 153.3032 625.2689 2910.7922 0.0000 -187380.3656 16812.0673 296.3252 0.0000 0.0000 -166582.6088 0.0000 -166582.6088 -166582.6088 0.0000 13644.2517 -6016.0305 534946.2959 13644.2517 -6016.0305
ENERGY: 360 171.4416 676.3391 2908.4623 0.0000 -188880.5537 17321.5559 357.6273 0.0000 0.0000 -167445.1275 0.0000 -167445.1275 -167445.1275 0.0000 13860.1645 -6010.4137 534946.2959 13860.1645 -6010.4137
ENERGY: 380 180.4872 659.1725 2901.8577 0.0000 -189899.0797 17721.2631 381.7137 0.0000 0.0000 -168054.5855 0.0000 -168054.5855 -168054.5855 0.0000 13969.7571 -5992.3688 534946.2959 13969.7571 -5992.3688
ENERGY: 400 137.1251 650.2432 2902.7539 0.0000 -190572.3337 17953.5035 397.2138 0.0000 0.0000 -168531.4942 0.0000 -168531.4942 -168531.4942 0.0000 14126.1286 -5936.1423 534946.2959 14126.1286 -5936.1423
TCL: Setting parameter constraintScaling to 0.625
TCL: Minimizing for 100 steps
ETITLE: TS BOND ANGLE DIHED IMPRP ELECT VDW BOUNDARY MISC KINETIC TOTAL TEMP POTENTIAL TOTAL3 TEMPAVG PRESSURE GPRESSURE VOLUME PRESSAVG GPRESSAVG
ENERGY: 400 137.1251 650.2432 2902.7539 0.0000 -190572.3337 17953.5035 198.6069 0.0000 0.0000 -168730.1011 0.0000 -168730.1011 -168730.1011 0.0000 14424.7184 -26634.8837 534946.2959 14424.7184 -26634.8837
ENERGY: 420 164.9651 637.6494 2901.0868 0.0000 -190870.3947 18030.9594 213.4091 0.0000 0.0000 -168922.3250 0.0000 -168922.3250 -168922.3250 0.0000 14334.0903 -5729.4595 534946.2959 14334.0903 -5729.4595
ENERGY: 440 292.2604 660.4029 2894.8545 0.0000 -192244.1333 18477.9536 265.0472 0.0000 0.0000 -169653.6148 0.0000 -169653.6148 -169653.6148 0.0000 14427.1368 -5776.5165 534946.2959 14427.1368 -5776.5165
ENERGY: 460 169.9601 647.8107 2885.9478 0.0000 -193053.4827 18780.1050 287.0030 0.0000 0.0000 -170282.6561 0.0000 -170282.6561 -170282.6561 0.0000 14633.2858 -5695.5277 534946.2959 14633.2858 -5695.5277
ENERGY: 480 160.1871 661.1603 2881.3580 0.0000 -193960.9115 19151.5863 304.3424 0.0000 0.0000 -170802.2774 0.0000 -170802.2774 -170802.2774 0.0000 14827.7608 -5612.5480 534946.2959 14827.7608 -5612.5480
ENERGY: 500 217.4205 690.3703 2887.0293 0.0000 -195462.5482 19768.3515 323.3336 0.0000 0.0000 -171576.0430 0.0000 -171576.0430 -171576.0430 0.0000 15084.4101 -5517.7094 534946.2959 15084.4101 -5517.7094
TCL: Setting parameter constraintScaling to 0.3125
TCL: Minimizing for 100 steps
ETITLE: TS BOND ANGLE DIHED IMPRP ELECT VDW BOUNDARY MISC KINETIC TOTAL TEMP POTENTIAL TOTAL3 TEMPAVG PRESSURE GPRESSURE VOLUME PRESSAVG GPRESSAVG
ENERGY: 500 217.4205 690.3703 2887.0293 0.0000 -195462.5482 19768.3515 161.6668 0.0000 0.0000 -171737.7098 0.0000 -171737.7098 -171737.7098 0.0000 15284.7428 -26925.3312 534946.2959 15284.7428 -26925.3312
ENERGY: 520 149.4557 639.0773 2873.8165 0.0000 -195629.8769 19808.9630 168.8527 0.0000 0.0000 -171989.7117 0.0000 -171989.7117 -171989.7117 0.0000 15314.2713 -5306.0616 534946.2959 15314.2713 -5306.0616
ENERGY: 540 187.3514 673.6743 2877.6568 0.0000 -196058.3578 19945.0247 187.2075 0.0000 0.0000 -172187.4430 0.0000 -172187.4430 -172187.4430 0.0000 15288.8469 -5355.7279 534946.2959 15288.8469 -5355.7279
ENERGY: 560 161.5337 653.5916 2864.8751 0.0000 -196668.7429 20159.2131 205.1174 0.0000 0.0000 -172624.4121 0.0000 -172624.4121 -172624.4121 0.0000 15403.6815 -5337.8192 534946.2959 15403.6815 -5337.8192
ENERGY: 580 165.7542 646.8866 2870.6978 0.0000 -196854.3146 20232.8083 202.6507 0.0000 0.0000 -172735.5171 0.0000 -172735.5171 -172735.5171 0.0000 15435.8568 -5313.6870 534946.2959 15435.8568 -5313.6870
ENERGY: 600 171.4088 697.5648 2878.6459 0.0000 -197451.7411 20485.3992 206.3860 0.0000 0.0000 -173012.3364 0.0000 -173012.3364 -173012.3364 0.0000 15625.3233 -5219.4113 534946.2959 15625.3233 -5219.4113
TCL: Setting parameter constraintScaling to 0.15625
TCL: Minimizing for 100 steps
ETITLE: TS BOND ANGLE DIHED IMPRP ELECT VDW BOUNDARY MISC KINETIC TOTAL TEMP POTENTIAL TOTAL3 TEMPAVG PRESSURE GPRESSURE VOLUME PRESSAVG GPRESSAVG
ENERGY: 600 171.4088 697.5648 2878.6459 0.0000 -197451.7411 20485.3992 103.1930 0.0000 0.0000 -173115.5295 0.0000 -173115.5295 -173115.5295 0.0000 15741.9065 -26944.0655 534946.2959 15741.9065 -26944.0655
ENERGY: 620 205.5526 664.3794 2861.4429 0.0000 -197653.5110 20529.8398 111.1524 0.0000 0.0000 -173281.1439 0.0000 -173281.1439 -173281.1439 0.0000 15691.8035 -5160.5203 534946.2959 15691.8035 -5160.5203
ENERGY: 640 165.5524 678.1806 2861.1716 0.0000 -197909.1429 20620.5721 118.5515 0.0000 0.0000 -173465.1146 0.0000 -173465.1146 -173465.1146 0.0000 15698.5161 -5170.1577 534946.2959 15698.5161 -5170.1577
ENERGY: 660 183.6401 670.3627 2853.3183 0.0000 -198764.4449 20956.7238 135.7454 0.0000 0.0000 -173964.6548 0.0000 -173964.6548 -173964.6548 0.0000 15857.3461 -5125.9178 534946.2959 15857.3461 -5125.9178
ENERGY: 680 167.2034 663.8273 2855.1707 0.0000 -199287.2095 21134.3461 141.7665 0.0000 0.0000 -174324.8955 0.0000 -174324.8955 -174324.8955 0.0000 15916.7230 -5109.3795 534946.2959 15916.7230 -5109.3795
ENERGY: 700 179.0476 676.6756 2849.2191 0.0000 -199483.3242 21205.0941 143.8545 0.0000 0.0000 -174429.4332 0.0000 -174429.4332 -174429.4332 0.0000 15941.4280 -5101.6659 534946.2959 15941.4280 -5101.6659
TCL: Setting parameter constraintScaling to 0.078125
TCL: Minimizing for 100 steps
ETITLE: TS BOND ANGLE DIHED IMPRP ELECT VDW BOUNDARY MISC KINETIC TOTAL TEMP POTENTIAL TOTAL3 TEMPAVG PRESSURE GPRESSURE VOLUME PRESSAVG GPRESSAVG
ENERGY: 700 179.0476 676.6756 2849.2191 0.0000 -199483.3242 21205.0941 71.9273 0.0000 0.0000 -174501.3605 0.0000 -174501.3605 -174501.3605 0.0000 16011.9842 -27149.7512 534946.2959 16011.9842 -27149.7512
ENERGY: 720 209.1773 672.0380 2849.1316 0.0000 -199614.5721 21250.1401 72.5391 0.0000 0.0000 -174561.5460 0.0000 -174561.5460 -174561.5460 0.0000 16053.1630 -5015.3053 534946.2959 16053.1630 -5015.3053
ENERGY: 740 163.5368 669.8623 2846.3374 0.0000 -200181.3159 21465.2199 76.5263 0.0000 0.0000 -174959.8331 0.0000 -174959.8331 -174959.8331 0.0000 16200.0607 -4955.4020 534946.2959 16200.0607 -4955.4020
ENERGY: 760 170.0820 674.7639 2840.7175 0.0000 -200415.0564 21540.9433 80.3642 0.0000 0.0000 -175108.1854 0.0000 -175108.1854 -175108.1854 0.0000 16197.3054 -4979.8988 534946.2959 16197.3054 -4979.8988
ENERGY: 780 191.4471 715.7310 2842.5998 0.0000 -200802.5096 21688.4640 84.7608 0.0000 0.0000 -175279.5070 0.0000 -175279.5070 -175279.5070 0.0000 16225.3538 -4979.0349 534946.2959 16225.3538 -4979.0349
ENERGY: 800 172.3296 652.8720 2833.7146 0.0000 -201541.5349 21970.9950 90.7505 0.0000 0.0000 -175820.8732 0.0000 -175820.8732 -175820.8732 0.0000 16404.5170 -4897.4372 534946.2959 16404.5170 -4897.4372
TCL: Setting parameter constraintScaling to 0.0390625
TCL: Minimizing for 100 steps
ETITLE: TS BOND ANGLE DIHED IMPRP ELECT VDW BOUNDARY MISC KINETIC TOTAL TEMP POTENTIAL TOTAL3 TEMPAVG PRESSURE GPRESSURE VOLUME PRESSAVG GPRESSAVG
ENERGY: 800 172.3296 652.8720 2833.7146 0.0000 -201541.5349 21970.9950 45.3752 0.0000 0.0000 -175866.2484 0.0000 -175866.2484 -175866.2484 0.0000 16445.3397 -27212.1273 534946.2959 16445.3397 -27212.1273
ENERGY: 820 281.3846 733.3109 2836.6526 0.0000 -201865.8706 22103.7334 46.7778 0.0000 0.0000 -175864.0113 0.0000 -175864.0113 -175864.0113 0.0000 16518.6977 -4843.9670 534946.2959 16518.6977 -4843.9670
ENERGY: 840 178.4604 652.0228 2829.9100 0.0000 -202073.0682 22187.7536 47.7729 0.0000 0.0000 -176177.1485 0.0000 -176177.1485 -176177.1485 0.0000 16548.1904 -4812.8661 534946.2959 16548.1904 -4812.8661
ENERGY: 860 214.4439 657.1982 2825.3363 0.0000 -202569.3507 22388.5602 50.3036 0.0000 0.0000 -176433.5085 0.0000 -176433.5085 -176433.5085 0.0000 16646.6964 -4772.6278 534946.2959 16646.6964 -4772.6278
ENERGY: 880 296.8749 748.0754 2834.2971 0.0000 -202804.6734 22481.2611 51.6668 0.0000 0.0000 -176392.4980 0.0000 -176392.4980 -176392.4980 0.0000 16673.4911 -4783.4169 534946.2959 16673.4911 -4783.4169
ENERGY: 900 189.3709 680.5159 2829.8501 0.0000 -203262.9865 22667.1633 53.9881 0.0000 0.0000 -176842.0981 0.0000 -176842.0981 -176842.0981 0.0000 16774.0223 -4724.2668 534946.2959 16774.0223 -4724.2668
TCL: Setting parameter constraintScaling to 0.01953125
TCL: Minimizing for 100 steps
ETITLE: TS BOND ANGLE DIHED IMPRP ELECT VDW BOUNDARY MISC KINETIC TOTAL TEMP POTENTIAL TOTAL3 TEMPAVG PRESSURE GPRESSURE VOLUME PRESSAVG GPRESSAVG
ENERGY: 900 189.3709 680.5159 2829.8501 0.0000 -203262.9865 22667.1633 26.9941 0.0000 0.0000 -176869.0922 0.0000 -176869.0922 -176869.0922 0.0000 16796.8630 -27271.3744 534946.2959 16796.8630 -27271.3744
ENERGY: 920 168.3833 657.3118 2820.5990 0.0000 -203392.5449 22716.5769 27.3708 0.0000 0.0000 -177002.3031 0.0000 -177002.3031 -177002.3031 0.0000 16826.3903 -4688.1138 534946.2959 16826.3903 -4688.1138
ENERGY: 940 173.7957 677.1744 2822.4584 0.0000 -203608.9324 22820.9864 28.0260 0.0000 0.0000 -177086.4916 0.0000 -177086.4916 -177086.4916 0.0000 16880.8527 -4660.2212 534946.2959 16880.8527 -4660.2212
ENERGY: 960 164.7760 655.5296 2818.9001 0.0000 -203646.1548 22828.9506 28.0451 0.0000 0.0000 -177149.9534 0.0000 -177149.9534 -177149.9534 0.0000 16893.3853 -4655.8758 534946.2959 16893.3853 -4655.8758
ENERGY: 980 164.9490 656.5109 2820.5725 0.0000 -203754.5370 22872.8200 28.2464 0.0000 0.0000 -177211.4382 0.0000 -177211.4382 -177211.4382 0.0000 16908.0318 -4649.6257 534946.2959 16908.0318 -4649.6257
ENERGY: 1000 182.9276 680.5548 2818.8119 0.0000 -204144.6208 23042.2673 29.4008 0.0000 0.0000 -177390.6583 0.0000 -177390.6583 -177390.6583 0.0000 17000.8004 -4611.3784 534946.2959 17000.8004 -4611.3784
TCL: Setting parameter constraintScaling to 0
TCL: Minimizing for 5000 steps
ETITLE: TS BOND ANGLE DIHED IMPRP ELECT VDW BOUNDARY MISC KINETIC TOTAL TEMP POTENTIAL TOTAL3 TEMPAVG PRESSURE GPRESSURE VOLUME PRESSAVG GPRESSAVG
ENERGY: 1000 182.9276 680.5548 2818.8119 0.0000 -204144.6208 23042.2673 0.0000 0.0000 0.0000 -177420.0591 0.0000 -177420.0591 -177420.0591 0.0000 17025.0851 -27255.9023 534946.2959 17025.0851 -27255.9023
ENERGY: 2000 169.1388 664.1482 2804.9031 0.0000 -214487.5361 27776.0660 0.0000 0.0000 0.0000 -183073.2800 0.0000 -183073.2800 -183073.2800 0.0000 19544.2325 -3233.0397 534946.2959 19544.2325 -3233.0397
ENERGY: 3000 167.2718 665.6610 2795.0272 0.0000 -217397.1256 28853.0937 0.0000 0.0000 0.0000 -184916.0719 0.0000 -184916.0719 -184916.0719 0.0000 20092.0672 -2968.4287 534946.2959 20092.0672 -2968.4287
ENERGY: 4000 165.9043 664.8790 2789.9949 0.0000 -218590.1221 29310.4359 0.0000 0.0000 0.0000 -185658.9080 0.0000 -185658.9080 -185658.9080 0.0000 20330.9872 -2855.1676 534946.2959 20330.9872 -2855.1676
ENERGY: 5000 166.2512 665.3835 2787.0060 0.0000 -219411.0625 29654.9866 0.0000 0.0000 0.0000 -186137.4352 0.0000 -186137.4352 -186137.4352 0.0000 20510.8969 -2760.2594 534946.2959 20510.8969 -2760.2594
ENERGY: 6000 167.2436 664.6570 2789.1660 0.0000 -219693.8837 29695.0316 0.0000 0.0000 0.0000 -186377.7855 0.0000 -186377.7855 -186377.7855 0.0000 20525.5982 -2766.7738 534946.2959 20525.5982 -2766.7738
