Info: SIMULATION PARAMETERS:
Info: TIMESTEP               1
Info: NUMBER OF STEPS        0
Info: STEPS PER CYCLE        10
Info: PERIODIC CELL BASIS 1  72.449 0 0
Info: PERIODIC CELL BASIS 2  0 93.247 0
Info: PERIODIC CELL BASIS 3  0 0 79.185
Info: PERIODIC CELL CENTER   -0.248 -0.156 -0.047
Info: WRAPPING WATERS AROUND PERIODIC BOUNDARIES ON OUTPUT.
Info: WRAPPING ALL CLUSTERS AROUND PERIODIC BOUNDARIES ON OUTPUT.
Info: FIRST LDB TIMESTEP     50
Info: LAST LDB TIMESTEP     -1
Info: HOM BACKGROUND SCALING 1
Info: PME BACKGROUND SCALING 1
Info: MIN ATOMS PER PATCH    40
Info: VELOCITY FILE          ../replicas/rep22/equilibration/eq1.vel
Info: CENTER OF MASS MOVING INITIALLY? NO
Info: DIELECTRIC             1
Info: EXCLUDE                SCALED ONE-FOUR
Info: 1-4 ELECTROSTATICS SCALED BY 0.833333
Info: MODIFIED 1-4 VDW PARAMETERS WILL BE USED
Info: DCD FILENAME           ../replicas/rep22/equilibration/eq2.dcd
Info: DCD FREQUENCY          5000
Info: DCD FIRST STEP         5000
Info: DCD FILE WILL CONTAIN UNIT CELL DATA
Info: XST FILENAME           ../replicas/rep22/equilibration/eq2.xst
Info: XST FREQUENCY          5000
Info: NO VELOCITY DCD OUTPUT
Info: NO FORCE DCD OUTPUT
Info: OUTPUT FILENAME        ../replicas/rep22/equilibration/eq2
Info: RESTART FILENAME       ../replicas/rep22/equilibration/eq2.restart
Info: RESTART FREQUENCY      5000
Info: BINARY RESTART FILES WILL BE USED
Info: SWITCHING ACTIVE
Info: SWITCHING ON           10
Info: SWITCHING OFF          12
Info: PAIRLIST DISTANCE      13.5
Info: PAIRLIST SHRINK RATE   0.01
Info: PAIRLIST GROW RATE     0.01
Info: PAIRLIST TRIGGER       0.3
Info: PAIRLISTS PER CYCLE    2
Info: PAIRLISTS ENABLED
Info: MARGIN                 0.48
Info: HYDROGEN GROUP CUTOFF  2.5
Info: PATCH DIMENSION        16.48
Info: ENERGY OUTPUT STEPS    500
Info: CROSSTERM ENERGY INCLUDED IN DIHEDRAL
Info: TIMING OUTPUT STEPS    5000
Info: PRESSURE OUTPUT STEPS  500
Info: HARMONIC CONSTRAINTS ACTIVE
Info: HARMONIC CONS EXP      2
Info: HARMONIC CONS SCALING  10
Info: LANGEVIN DYNAMICS ACTIVE
Info: LANGEVIN TEMPERATURE   300
Info: LANGEVIN USING BBK INTEGRATOR
Info: LANGEVIN DAMPING COEFFICIENT IS 5 INVERSE PS
Info: LANGEVIN DYNAMICS NOT APPLIED TO HYDROGENS
Info: BERENDSEN PRESSURE COUPLING ACTIVE
Info:     TARGET PRESSURE IS 1 BAR
Info:     COMPRESSIBILITY ESTIMATE IS 4.57e-05 BAR^(-1)
Info:     RELAXATION TIME IS 100 FS
Info:     APPLIED EVERY 2 STEPS
Info:     PRESSURE CONTROL IS GROUP-BASED
Info:       CELL FLUCTUATION IS ISOTROPIC
Info: PARTICLE MESH EWALD (PME) ACTIVE
Info: PME TOLERANCE               1e-06
Info: PME EWALD COEFFICIENT       0.257952
Info: PME INTERPOLATION ORDER     4
Info: PME GRID DIMENSIONS         80 96 80
Info: PME MAXIMUM GRID SPACING    1
Info: FULL ELECTROSTATIC EVALUATION FREQUENCY      2
Info: USING VERLET I (r-RESPA) MTS SCHEME.
Info: C1 SPLITTING OF LONG RANGE ELECTROSTATICS
Info: PLACING ATOMS IN PATCHES BY HYDROGEN GROUPS
Info: RIGID BONDS TO HYDROGEN : WATER
Info:         ERROR TOLERANCE : 1e-05
Info:          MAX ITERATIONS : 100
Info: RIGID WATER USING SETTLE ALGORITHM
Info: RANDOM NUMBER SEED     1503718014
Info: USE HYDROGEN BONDS?    NO
Info: Using AMBER format force field!
Info: AMBER PARM FILE        ../build/complex.top
Info: COORDINATE PDB         ../replicas/rep22/equilibration/eq1.coor
Info: Exclusions in PARM file will be ignored!
Info: SCNB (VDW SCALING)     2
Info: USING ARITHMETIC MEAN TO COMBINE L-J SIGMA PARAMETERS
Info: SUMMARY OF PARAMETERS:
Info: 71 BONDS
Info: 145 ANGLES
Info: 76 DIHEDRAL
Info: 0 IMPROPER
Info: 0 CROSSTERM
Info: 0 VDW
Info: 190 VDW_PAIRS
Info: 0 NBTHOLE_PAIRS
Info: STRUCTURE SUMMARY:
Info: 49394 ATOMS
Info: 49448 BONDS
Info: 8698 ANGLES
Info: 18780 DIHEDRALS
Info: 0 IMPROPERS
Info: 0 CROSSTERMS
Info: 0 EXCLUSIONS
Info: 2336 CONSTRAINTS
Info: 44667 RIGID BONDS
Info: 103515 DEGREES OF FREEDOM
Info: 17225 HYDROGEN GROUPS
Info: 4 ATOMS IN LARGEST HYDROGEN GROUP
Info: 17225 MIGRATION GROUPS
Info: 4 ATOMS IN LARGEST MIGRATION GROUP
Info: TOTAL MASS = 301478 amu
Info: TOTAL CHARGE = 1.00115e-05 e
Info: MASS DENSITY = 0.935846 g/cm^3
Info: ATOM DENSITY = 0.0923345 atoms/A^3
Info: ADDED 70656 IMPLICIT EXCLUSIONS
Info: NONBONDED TABLE R-SQUARED SPACING: 0.0625
Info: NONBONDED TABLE SIZE: 769 POINTS
Info: REMOVING COM VELOCITY -0.00382224 -0.0233538 0.00499386
TCL: Running for 5000 steps
ETITLE: TS BOND ANGLE DIHED IMPRP ELECT VDW BOUNDARY MISC KINETIC TOTAL TEMP POTENTIAL TOTAL3 TEMPAVG PRESSURE GPRESSURE VOLUME PRESSAVG GPRESSAVG
ENERGY: 0 391.6384 1221.9984 2921.1292 0.0000 -212486.6661 29334.1669 0.0000 0.0000 10080.6013 -168537.1320 98.0107 -178617.7334 -168527.5358 98.0107 -2456.9493 -2555.4168 534946.2959 -2456.9493 -2555.4168
ENERGY: 1000 1220.2902 1997.9429 3118.5562 0.0000 -193475.3476 26273.5358 772.5362 0.0000 24214.9329 -135877.5535 235.4346 -160092.4864 -135844.8545 219.4737 -96.0379 -74.8132 521882.4116 -22.8409 -23.2986
ENERGY: 2000 1460.6579 2171.7192 3154.2674 0.0000 -184120.7475 23253.6123 799.1097 0.0000 28162.4887 -125118.8923 273.8156 -153281.3809 -125087.6096 265.2134 -48.7959 -7.6495 515709.4409 -27.7982 -28.1086
ENERGY: 3000 1503.9075 2225.1115 3128.0584 0.0000 -178776.8733 21579.7378 806.6661 0.0000 29538.5389 -119994.8532 287.1945 -149533.3920 -119948.2844 285.3358 -106.5125 -8.0924 511207.1737 -17.3109 -18.0384
ENERGY: 4000 1548.4374 2243.8295 3120.9764 0.0000 -176920.9313 20837.0292 821.6248 0.0000 30428.2311 -117920.8029 295.8447 -148349.0340 -117876.5425 294.3137 -9.2326 -13.2972 507804.9450 -6.4014 -6.0253
ENERGY: 5000 1583.3975 2273.2908 3136.7444 0.0000 -175724.4038 20094.3641 778.0569 0.0000 30460.2660 -117398.2842 296.1562 -147858.5502 -117353.6112 296.7646 -60.0206 -15.4895 505392.1948 -9.5387 -9.5741
TCL: Setting parameter constraintScaling to 5.0
TCL: Running for 5000 steps
ETITLE: TS BOND ANGLE DIHED IMPRP ELECT VDW BOUNDARY MISC KINETIC TOTAL TEMP POTENTIAL TOTAL3 TEMPAVG PRESSURE GPRESSURE VOLUME PRESSAVG GPRESSAVG
ENERGY: 5000 1583.3975 2273.2908 3136.7444 0.0000 -175724.4038 20094.3641 389.0284 0.0000 30458.1987 -117789.3799 296.1361 -148247.5786 -117745.6791 296.1361 -192.2707 -138.2395 505392.1948 -192.2707 -138.2395
ENERGY: 6000 1636.0754 2324.7941 3176.2413 0.0000 -175867.4725 20481.4362 661.4533 0.0000 30615.8405 -116971.6318 297.6688 -147587.4723 -116919.9948 298.5714 21.5730 28.3882 502895.9113 -0.8224 -1.2974
ENERGY: 7000 1581.3612 2335.7458 3157.5413 0.0000 -175898.2869 20618.1969 647.0978 0.0000 30712.2650 -116846.0789 298.6063 -147558.3438 -116802.7317 299.5462 -56.9439 -48.8241 504142.6107 1.4843 1.1616
ENERGY: 8000 1587.4350 2295.1098 3155.8010 0.0000 -175381.7835 20230.8307 627.9155 0.0000 30925.4715 -116559.2201 300.6792 -147484.6916 -116516.1855 300.4382 -16.3983 62.1688 503817.2984 16.2293 15.9908
ENERGY: 9000 1614.7226 2360.4783 3135.0436 0.0000 -175922.0667 20431.6502 638.5458 0.0000 30878.0822 -116863.5439 300.2185 -147741.6261 -116814.5024 298.8696 -97.4393 -67.5525 501555.7554 -8.1002 -7.9567
ENERGY: 10000 1621.5678 2361.2260 3176.5428 0.0000 -175564.0001 19957.5077 683.5449 0.0000 30666.6857 -117096.9253 298.1631 -147763.6110 -117063.4139 299.5452 -8.7915 -11.5946 500405.4905 -6.0536 -6.4359
TCL: Setting parameter constraintScaling to 2.5
TCL: Running for 5000 steps
ETITLE: TS BOND ANGLE DIHED IMPRP ELECT VDW BOUNDARY MISC KINETIC TOTAL TEMP POTENTIAL TOTAL3 TEMPAVG PRESSURE GPRESSURE VOLUME PRESSAVG GPRESSAVG
ENERGY: 10000 1621.5678 2361.2260 3176.5428 0.0000 -175564.0001 19957.5077 341.7724 0.0000 30664.6431 -117440.7403 298.1433 -148105.3834 -117397.4397 298.1433 -113.8138 -120.4226 500405.4905 -113.8138 -120.4226
ENERGY: 11000 1583.9175 2406.8175 3162.1986 0.0000 -175621.8344 20034.1360 527.9507 0.0000 30902.1778 -117004.6363 300.4528 -147906.8141 -116959.0294 300.5981 7.7565 12.9923 499923.5780 0.8546 0.4581
ENERGY: 12000 1666.4873 2288.0079 3155.8872 0.0000 -175873.9017 20116.4100 507.2367 0.0000 30924.6327 -117215.2399 300.6711 -148139.8726 -117174.5250 300.5751 -109.0587 -5.4202 500402.7823 6.6279 6.6822
ENERGY: 13000 1609.9001 2336.3615 3179.5477 0.0000 -176116.4498 20252.7211 500.8292 0.0000 31146.0157 -117091.0745 302.8235 -148237.0901 -117049.2906 299.6665 149.3153 55.1607 499116.2037 -7.3712 -7.0062
ENERGY: 14000 1641.3313 2351.5066 3155.5301 0.0000 -175941.1604 20331.5178 516.1355 0.0000 30973.5953 -116971.5437 301.1471 -147945.1390 -116937.7636 300.3151 -121.9700 -39.3239 500602.5000 19.9499 20.3526
ENERGY: 15000 1578.7277 2391.1969 3172.6507 0.0000 -175553.5296 19961.6794 521.0373 0.0000 30838.3511 -117089.8865 299.8322 -147928.2376 -117049.3492 299.2131 26.8874 -35.0643 499457.8249 -1.1962 -1.5859
TCL: Setting parameter constraintScaling to 1.25
TCL: Running for 5000 steps
ETITLE: TS BOND ANGLE DIHED IMPRP ELECT VDW BOUNDARY MISC KINETIC TOTAL TEMP POTENTIAL TOTAL3 TEMPAVG PRESSURE GPRESSURE VOLUME PRESSAVG GPRESSAVG
ENERGY: 15000 1578.7277 2391.1969 3172.6507 0.0000 -175553.5296 19961.6794 260.5187 0.0000 30836.2945 -117352.4618 299.8122 -148188.7563 -117309.0668 299.8122 -43.4885 -91.1314 499457.8249 -43.4885 -91.1314
ENERGY: 16000 1647.5398 2395.6735 3219.9774 0.0000 -175556.4518 20007.1427 394.1307 0.0000 30912.2555 -116979.7321 300.5507 -147891.9876 -116923.5972 300.6027 -107.1723 -10.5574 499613.1089 -6.7050 -6.5987
ENERGY: 17000 1589.2593 2394.7311 3203.0663 0.0000 -175657.9512 20174.5920 390.5732 0.0000 30972.1253 -116933.6039 301.1328 -147905.7292 -116893.6940 300.3142 -57.3910 -12.4794 499872.8735 13.2568 12.9964
ENERGY: 18000 1618.9867 2390.2543 3195.6512 0.0000 -175793.4621 20089.3977 409.7999 0.0000 30646.1126 -117443.2597 297.9631 -148089.3723 -117390.4321 299.2841 -17.6261 35.0951 498316.0105 -4.9443 -4.9041
ENERGY: 19000 1685.2436 2396.5696 3232.4989 0.0000 -176302.0542 20430.9990 409.6893 0.0000 30816.2153 -117330.8385 299.6170 -148147.0538 -117286.2274 300.1434 -0.1486 58.0310 499140.8484 0.1133 0.3663
ENERGY: 20000 1636.5128 2344.8638 3187.6672 0.0000 -175656.2589 19999.2321 386.3441 0.0000 30687.3589 -117414.2800 298.3641 -148101.6389 -117369.1808 299.0947 38.2503 -11.3671 499679.0036 0.2157 -0.1908
TCL: Setting parameter constraintScaling to 0.625
TCL: Running for 5000 steps
ETITLE: TS BOND ANGLE DIHED IMPRP ELECT VDW BOUNDARY MISC KINETIC TOTAL TEMP POTENTIAL TOTAL3 TEMPAVG PRESSURE GPRESSURE VOLUME PRESSAVG GPRESSAVG
ENERGY: 20000 1636.5128 2344.8638 3187.6672 0.0000 -175656.2589 19999.2321 193.1720 0.0000 30685.2960 -117609.5150 298.3441 -148294.8109 -117566.6376 298.3441 -47.5184 -99.6588 499679.0036 -47.5184 -99.6588
ENERGY: 21000 1650.7083 2372.0419 3216.8530 0.0000 -175946.2219 20267.6351 302.1824 0.0000 30787.5849 -117349.2164 299.3386 -148136.8014 -117308.2611 299.3399 79.2516 72.7190 498932.1147 10.9070 10.7824
ENERGY: 22000 1651.1045 2324.5460 3224.2550 0.0000 -175763.0187 20083.5554 342.9611 0.0000 30860.5553 -117276.0413 300.0481 -148136.5966 -117237.9032 299.9036 -99.6534 -87.4432 498517.9093 -0.0848 -0.3813
ENERGY: 23000 1639.4074 2352.1394 3199.0928 0.0000 -176189.0059 20204.6733 308.1526 0.0000 30864.3459 -117621.1944 300.0849 -148485.5403 -117566.6549 299.0273 -49.3462 -6.1658 499207.5157 6.0661 6.3909
ENERGY: 24000 1621.4084 2370.2630 3235.5211 0.0000 -176227.4378 20256.4018 322.1670 0.0000 30764.0337 -117657.6428 299.1096 -148421.6766 -117618.1235 299.3923 72.1674 34.6634 496707.7886 -13.6074 -13.1260
ENERGY: 25000 1657.0765 2406.1993 3186.9634 0.0000 -175984.8588 20276.7650 315.6106 0.0000 30970.1677 -117172.0762 301.1138 -148142.2439 -117131.9275 300.0386 -19.8791 46.6108 498101.4224 1.1907 1.3930
TCL: Setting parameter constraintScaling to 0.3125
TCL: Running for 5000 steps
ETITLE: TS BOND ANGLE DIHED IMPRP ELECT VDW BOUNDARY MISC KINETIC TOTAL TEMP POTENTIAL TOTAL3 TEMPAVG PRESSURE GPRESSURE VOLUME PRESSAVG GPRESSAVG
ENERGY: 25000 1657.0765 2406.1993 3186.9634 0.0000 -175984.8588 20276.7650 157.8053 0.0000 30968.1400 -117331.9092 301.0941 -148300.0492 -117288.3903 301.0941 -50.8407 24.4012 498101.4224 -50.8407 24.4012
ENERGY: 26000 1627.7814 2329.3389 3214.0948 0.0000 -175339.8955 19834.7164 244.7101 0.0000 30804.8252 -117284.4288 299.5062 -148089.2540 -117240.1456 299.3272 -79.7228 12.4689 498119.7734 0.3839 0.3877
ENERGY: 27000 1603.3532 2370.8244 3239.9715 0.0000 -175676.9501 19952.5351 279.7537 0.0000 30863.0716 -117367.4405 300.0725 -148230.5121 -117325.8478 300.6970 2.6722 -5.0996 497225.7475 -10.0178 -9.9378
ENERGY: 28000 1683.3870 2429.0164 3235.7726 0.0000 -175717.3595 19976.7530 264.5294 0.0000 30647.4453 -117480.4559 297.9761 -148127.9013 -117431.5031 299.0468 -141.9853 -53.3303 499648.3057 15.4418 15.6441
ENERGY: 29000 1639.6922 2362.6546 3215.3846 0.0000 -175924.9098 20260.7583 248.2225 0.0000 30877.9340 -117320.2636 300.2170 -148198.1977 -117265.9977 299.9484 -186.3077 -129.4549 498527.5762 3.3894 3.2604
ENERGY: 30000 1695.7136 2408.5542 3215.0279 0.0000 -176167.9723 20178.5021 253.3915 0.0000 30738.7916 -117677.9915 298.8642 -148416.7831 -117629.1239 299.5003 -2.9365 -1.3177 496983.6053 -12.8661 -12.7973
TCL: Setting parameter constraintScaling to 0.15625
TCL: Running for 5000 steps
ETITLE: TS BOND ANGLE DIHED IMPRP ELECT VDW BOUNDARY MISC KINETIC TOTAL TEMP POTENTIAL TOTAL3 TEMPAVG PRESSURE GPRESSURE VOLUME PRESSAVG GPRESSAVG
ENERGY: 30000 1695.7136 2408.5542 3215.0279 0.0000 -176167.9723 20178.5021 126.6958 0.0000 30736.7342 -117806.7446 298.8442 -148543.4788 -117763.4636 298.8442 -38.7099 -38.5675 496983.6053 -38.7099 -38.5675
ENERGY: 31000 1649.4986 2415.2361 3196.4553 0.0000 -176190.8253 20263.2260 206.0392 0.0000 30696.2336 -117764.1365 298.4504 -148460.3701 -117730.2523 299.0427 -0.3197 110.6599 496721.9306 -1.1104 -1.5987
ENERGY: 32000 1629.2199 2370.0439 3235.6002 0.0000 -176413.3268 20370.8201 213.9372 0.0000 30453.6851 -118140.0205 296.0922 -148593.7056 -118099.3374 298.5364 -69.7249 -24.5775 497263.0763 10.7198 10.3904
ENERGY: 33000 1643.1832 2383.8630 3208.8080 0.0000 -175701.1428 20028.2218 189.8751 0.0000 30810.8840 -117436.3077 299.5651 -148247.1917 -117400.7700 299.2692 30.9461 -5.2239 497557.1008 -6.1281 -6.2241
ENERGY: 34000 1638.7855 2433.7609 3180.1284 0.0000 -175639.0147 20026.5942 207.4579 0.0000 30828.6709 -117323.6170 299.7381 -148152.2878 -117285.5269 300.2253 -42.0435 1.4570 498080.4336 13.6446 13.1695
ENERGY: 35000 1591.8585 2398.2680 3238.3900 0.0000 -175580.9905 19868.6475 216.5881 0.0000 30863.2160 -117404.0225 300.0739 -148267.2385 -117362.8244 299.5489 131.6300 70.9338 495642.9857 -13.3791 -13.2917
TCL: Setting parameter constraintScaling to 0.078125
TCL: Running for 5000 steps
ETITLE: TS BOND ANGLE DIHED IMPRP ELECT VDW BOUNDARY MISC KINETIC TOTAL TEMP POTENTIAL TOTAL3 TEMPAVG PRESSURE GPRESSURE VOLUME PRESSAVG GPRESSAVG
ENERGY: 35000 1591.8585 2398.2680 3238.3900 0.0000 -175580.9905 19868.6475 108.2940 0.0000 30861.1595 -117514.3731 300.0539 -148375.5325 -117469.8354 300.0539 77.8956 16.0225 495642.9857 77.8956 16.0225
ENERGY: 36000 1641.7086 2427.7740 3196.5375 0.0000 -175608.5527 19940.2165 149.3025 0.0000 30898.7066 -117354.3072 300.4190 -148253.0138 -117310.0313 300.1526 -19.7889 24.2659 497031.9863 1.5322 1.4236
ENERGY: 37000 1656.4005 2452.0345 3211.5958 0.0000 -175938.6028 20272.1632 137.7947 0.0000 30948.4473 -117260.1669 300.9026 -148208.6142 -117222.9307 299.2073 -8.2064 74.5148 496298.6215 -3.4718 -3.0154
ENERGY: 38000 1665.8425 2387.7986 3211.9994 0.0000 -175900.4820 20191.0248 159.7586 0.0000 30976.7629 -117307.2951 301.1779 -148284.0580 -117255.5853 300.3974 -62.8896 19.6220 497968.7053 16.9590 16.6634
ENERGY: 39000 1636.5877 2429.1635 3241.6881 0.0000 -175694.2529 20011.1913 171.5947 0.0000 30874.1328 -117329.8947 300.1801 -148204.0275 -117286.0966 298.8357 -76.4165 -27.4388 498331.4334 -2.6135 -3.2568
ENERGY: 40000 1614.3300 2501.4319 3174.7901 0.0000 -175646.0099 20005.3646 174.1625 0.0000 30825.5411 -117350.3897 299.7076 -148175.9307 -117300.3967 299.7195 110.4159 28.3950 498377.5653 2.7121 2.3843
TCL: Setting parameter constraintScaling to 0.0390625
TCL: Running for 5000 steps
ETITLE: TS BOND ANGLE DIHED IMPRP ELECT VDW BOUNDARY MISC KINETIC TOTAL TEMP POTENTIAL TOTAL3 TEMPAVG PRESSURE GPRESSURE VOLUME PRESSAVG GPRESSAVG
ENERGY: 40000 1614.3300 2501.4319 3174.7901 0.0000 -175646.0099 20005.3646 87.0813 0.0000 30823.4931 -117439.5189 299.6877 -148263.0120 -117394.7752 299.6877 87.1302 1.0017 498377.5653 87.1302 1.0017
ENERGY: 41000 1643.2605 2436.1481 3208.1367 0.0000 -175568.2551 19955.9992 104.8010 0.0000 30684.2808 -117535.6288 298.3342 -148219.9096 -117488.5485 299.7273 -122.5998 -51.5942 497770.4184 8.3522 8.7928
ENERGY: 42000 1612.7367 2422.7080 3235.9083 0.0000 -175750.0664 20048.3351 107.4684 0.0000 30854.6682 -117468.2418 299.9908 -148322.9100 -117429.6474 300.0137 -5.0413 -6.7426 497542.5648 -2.3057 -2.1458
ENERGY: 43000 1620.1740 2426.0632 3164.0911 0.0000 -176055.4767 20291.3074 121.4219 0.0000 30896.8889 -117535.5302 300.4013 -148432.4191 -117493.8913 299.8783 3.8572 42.8720 498908.1027 9.8197 9.9749
ENERGY: 44000 1607.1646 2413.1186 3228.3784 0.0000 -175729.4012 19903.9046 119.0150 0.0000 30929.8083 -117528.0117 300.7214 -148457.8200 -117482.1091 299.4103 32.1387 -46.1346 497595.0870 7.7256 7.5215
ENERGY: 45000 1581.9733 2408.5744 3238.2744 0.0000 -176221.9115 19952.2091 130.5406 0.0000 30876.0483 -118034.2915 300.1987 -148910.3398 -117984.4769 298.4023 -161.0300 -120.9004 495860.8928 -8.8850 -8.4839
TCL: Setting parameter constraintScaling to 0.01953125
TCL: Running for 5000 steps
ETITLE: TS BOND ANGLE DIHED IMPRP ELECT VDW BOUNDARY MISC KINETIC TOTAL TEMP POTENTIAL TOTAL3 TEMPAVG PRESSURE GPRESSURE VOLUME PRESSAVG GPRESSAVG
ENERGY: 45000 1581.9733 2408.5744 3238.2744 0.0000 -176221.9115 19952.2091 65.2703 0.0000 30873.9935 -118101.6166 300.1787 -148975.6101 -118053.8602 300.1787 -172.6245 -135.7227 495860.8928 -172.6245 -135.7227
ENERGY: 46000 1620.2941 2409.7150 3237.9694 0.0000 -176396.4545 20176.3285 80.3997 0.0000 30708.9699 -118162.7779 298.5742 -148871.7477 -118119.2880 298.8272 -52.1697 22.2100 495801.8248 -5.4728 -5.5703
ENERGY: 47000 1625.0894 2425.2088 3217.3835 0.0000 -176164.3200 19993.3769 82.1052 0.0000 30924.1038 -117897.0524 300.6659 -148821.1562 -117840.2619 298.7726 -30.1958 -66.7182 496757.4564 -6.6105 -6.6318
ENERGY: 48000 1618.2733 2397.4268 3198.4764 0.0000 -175776.8644 19984.3243 86.6309 0.0000 30788.9178 -117702.8148 299.3516 -148491.7326 -117656.4071 299.1278 24.3399 -84.2515 496712.6800 -0.8015 -1.5413
ENERGY: 49000 1569.2098 2291.1648 3246.3908 0.0000 -175781.0157 19951.3513 87.8856 0.0000 30864.9496 -117770.0638 300.0908 -148635.0134 -117721.5947 299.7207 62.4970 51.2260 497057.6207 -2.3709 -2.9388
ENERGY: 50000 1632.2248 2334.8593 3198.2511 0.0000 -175998.1397 20021.2805 84.8185 0.0000 30658.1842 -118068.5213 298.0805 -148726.7055 -118032.6107 298.0491 -47.1779 -43.3601 497336.4288 1.7885 2.0980
TCL: Setting parameter constraintScaling to 0
TCL: Running for 5000 steps
ETITLE: TS BOND ANGLE DIHED IMPRP ELECT VDW BOUNDARY MISC KINETIC TOTAL TEMP POTENTIAL TOTAL3 TEMPAVG PRESSURE GPRESSURE VOLUME PRESSAVG GPRESSAVG
ENERGY: 50000 1632.2248 2334.8593 3198.2511 0.0000 -175998.1397 20021.2805 0.0000 0.0000 30656.1370 -118155.3870 298.0606 -148811.5240 -118113.8161 298.0606 -63.5490 -55.3600 497336.4288 -63.5490 -55.3600
ENERGY: 51000 1630.1963 2387.3339 3207.3068 0.0000 -175563.8624 19936.9514 0.0000 0.0000 30775.1172 -117626.9567 299.2174 -148402.0739 -117582.7740 300.3590 -126.9564 -86.7581 497642.1245 9.1505 9.7064
ENERGY: 52000 1642.9231 2425.9636 3205.8016 0.0000 -175998.9595 20248.3171 0.0000 0.0000 31130.8936 -117345.0606 302.6765 -148475.9542 -117302.6842 300.6832 -25.8491 29.3426 497315.8482 -8.1973 -7.8775
ENERGY: 53000 1632.6421 2387.8197 3176.4757 0.0000 -175529.6587 19980.2032 0.0000 0.0000 30641.5928 -117710.9252 297.9192 -148352.5180 -117664.1935 300.2217 -30.8853 24.8656 496150.4479 -3.7956 -4.4473
ENERGY: 54000 1640.2335 2366.8992 3212.9112 0.0000 -175704.3865 19936.4836 0.0000 0.0000 30667.9192 -117879.9397 298.1751 -148547.8589 -117841.7797 299.7125 -39.2029 -25.4016 496196.8296 3.4044 2.6781
ENERGY: 55000 1608.9794 2387.5949 3214.7046 0.0000 -175812.4458 20069.3775 0.0000 0.0000 30881.1695 -117650.6200 300.2485 -148531.7895 -117603.7760 300.0310 -62.7653 14.8493 496213.6840 -5.6066 -6.0386
