Info: SIMULATION PARAMETERS:
Info: TIMESTEP               2
Info: NUMBER OF STEPS        0
Info: STEPS PER CYCLE        10
Info: PERIODIC CELL BASIS 1  72.449 0 0
Info: PERIODIC CELL BASIS 2  0 93.247 0
Info: PERIODIC CELL BASIS 3  0 0 79.185
Info: PERIODIC CELL CENTER   -0.248 -0.156 -0.047
Info: WRAPPING WATERS AROUND PERIODIC BOUNDARIES ON OUTPUT.
Info: WRAPPING ALL CLUSTERS AROUND PERIODIC BOUNDARIES ON OUTPUT.
Info: FIRST LDB TIMESTEP     50
Info: LAST LDB TIMESTEP     -1
Info: HOM BACKGROUND SCALING 1
Info: PME BACKGROUND SCALING 1
Info: MIN ATOMS PER PATCH    40
Info: INITIAL TEMPERATURE    0
Info: CENTER OF MASS MOVING INITIALLY? NO
Info: DIELECTRIC             1
Info: EXCLUDE                SCALED ONE-FOUR
Info: 1-4 ELECTROSTATICS SCALED BY 0.833333
Info: MODIFIED 1-4 VDW PARAMETERS WILL BE USED
Info: NO DCD TRAJECTORY OUTPUT
Info: NO EXTENDED SYSTEM TRAJECTORY OUTPUT
Info: NO VELOCITY DCD OUTPUT
Info: NO FORCE DCD OUTPUT
Info: OUTPUT FILENAME        ../replicas/rep36/equilibration/eq0
Info: NO RESTART FILE
Info: SWITCHING ACTIVE
Info: SWITCHING ON           10
Info: SWITCHING OFF          12
Info: PAIRLIST DISTANCE      13.5
Info: PAIRLIST SHRINK RATE   0.01
Info: PAIRLIST GROW RATE     0.01
Info: PAIRLIST TRIGGER       0.3
Info: PAIRLISTS PER CYCLE    2
Info: PAIRLISTS ENABLED
Info: MARGIN                 0
Info: HYDROGEN GROUP CUTOFF  2.5
Info: PATCH DIMENSION        16
Info: ENERGY OUTPUT STEPS    500
Info: CROSSTERM ENERGY INCLUDED IN DIHEDRAL
Info: TIMING OUTPUT STEPS    5000
Info: PRESSURE OUTPUT STEPS  500
Info: HARMONIC CONSTRAINTS ACTIVE
Info: HARMONIC CONS EXP      2
Info: HARMONIC CONS SCALING  10
Info: CONJUGATE GRADIENT MINIMIZATION ACTIVE
Info: LINE MINIMIZATION GOAL = 0.001
Info: BABY STEP SIZE = 0.01
Info: TINY STEP SIZE = 1e-06
Info: PARTICLE MESH EWALD (PME) ACTIVE
Info: PME TOLERANCE               1e-06
Info: PME EWALD COEFFICIENT       0.257952
Info: PME INTERPOLATION ORDER     4
Info: PME GRID DIMENSIONS         80 96 80
Info: PME MAXIMUM GRID SPACING    1
Info: FULL ELECTROSTATIC EVALUATION FREQUENCY      2
Info: USING VERLET I (r-RESPA) MTS SCHEME.
Info: C1 SPLITTING OF LONG RANGE ELECTROSTATICS
Info: PLACING ATOMS IN PATCHES BY HYDROGEN GROUPS
Info: RIGID BONDS TO HYDROGEN : ALL
Info:         ERROR TOLERANCE : 1e-05
Info:          MAX ITERATIONS : 100
Info: RIGID WATER USING SETTLE ALGORITHM
Info: RANDOM NUMBER SEED     1503695655
Info: USE HYDROGEN BONDS?    NO
Info: Using AMBER format force field!
Info: AMBER PARM FILE        ../build/complex.top
Info: COORDINATE PDB         ../build/complex.pdb
Info: Exclusions in PARM file will be ignored!
Info: SCNB (VDW SCALING)     2
Info: USING ARITHMETIC MEAN TO COMBINE L-J SIGMA PARAMETERS
Info: SUMMARY OF PARAMETERS:
Info: 71 BONDS
Info: 145 ANGLES
Info: 76 DIHEDRAL
Info: 0 IMPROPER
Info: 0 CROSSTERM
Info: 0 VDW
Info: 190 VDW_PAIRS
Info: 0 NBTHOLE_PAIRS
Info: STRUCTURE SUMMARY:
Info: 49394 ATOMS
Info: 49448 BONDS
Info: 8698 ANGLES
Info: 18780 DIHEDRALS
Info: 0 IMPROPERS
Info: 0 CROSSTERMS
Info: 0 EXCLUSIONS
Info: 2336 CONSTRAINTS
Info: 47058 RIGID BONDS
Info: 101124 DEGREES OF FREEDOM
Info: 17225 HYDROGEN GROUPS
Info: 4 ATOMS IN LARGEST HYDROGEN GROUP
Info: 17225 MIGRATION GROUPS
Info: 4 ATOMS IN LARGEST MIGRATION GROUP
Info: TOTAL MASS = 301478 amu
Info: TOTAL CHARGE = 1.00115e-05 e
Info: MASS DENSITY = 0.935846 g/cm^3
Info: ATOM DENSITY = 0.0923345 atoms/A^3
Info: ADDED 70656 IMPLICIT EXCLUSIONS
Info: NONBONDED TABLE R-SQUARED SPACING: 0.0625
Info: NONBONDED TABLE SIZE: 769 POINTS
Info: REMOVING COM VELOCITY 0 0 0
TCL: Minimizing for 100 steps
ETITLE: TS BOND ANGLE DIHED IMPRP ELECT VDW BOUNDARY MISC KINETIC TOTAL TEMP POTENTIAL TOTAL3 TEMPAVG PRESSURE GPRESSURE VOLUME PRESSAVG GPRESSAVG
ENERGY: 0 155.4176 1012.2698 2855.7272 0.0000 -154496.7911 207729.2052 0.0468 0.0000 0.0000 57255.8755 0.0000 57255.8755 57255.8755 0.0000 116350.2532 86546.1670 534946.2959 116350.2532 86546.1670
ENERGY: 20 304.7539 935.7910 2893.4663 0.0000 -158672.9397 17936.6599 143.9454 0.0000 0.0000 -136458.3233 0.0000 -136458.3233 -136458.3233 0.0000 16523.9392 -239.4552 534946.2959 16523.9392 -239.4552
ENERGY: 40 198.7413 799.5723 2896.9273 0.0000 -162811.4538 16417.9534 221.3029 0.0000 0.0000 -142276.9566 0.0000 -142276.9566 -142276.9566 0.0000 15011.2701 -2135.4700 534946.2959 15011.2701 -2135.4700
ENERGY: 60 130.5286 715.3440 2898.2165 0.0000 -167496.1539 15446.7545 315.2795 0.0000 0.0000 -147990.0307 0.0000 -147990.0307 -147990.0307 0.0000 13793.8845 -3799.3976 534946.2959 13793.8845 -3799.3976
ENERGY: 80 431.2756 765.6313 2904.3782 0.0000 -169937.5170 15121.1538 372.0119 0.0000 0.0000 -150343.0662 0.0000 -150343.0662 -150343.0662 0.0000 13270.3339 -4577.2411 534946.2959 13270.3339 -4577.2411
ENERGY: 100 129.7169 708.0662 2904.2779 0.0000 -171050.0701 15018.6524 384.1999 0.0000 0.0000 -151905.1567 0.0000 -151905.1567 -151905.1567 0.0000 13092.9120 -4843.6338 534946.2959 13092.9120 -4843.6338
TCL: Setting parameter constraintScaling to 5.0
TCL: Minimizing for 100 steps
ETITLE: TS BOND ANGLE DIHED IMPRP ELECT VDW BOUNDARY MISC KINETIC TOTAL TEMP POTENTIAL TOTAL3 TEMPAVG PRESSURE GPRESSURE VOLUME PRESSAVG GPRESSAVG
ENERGY: 100 129.7169 708.0662 2904.2779 0.0000 -171050.0701 15018.6524 192.0999 0.0000 0.0000 -152097.2566 0.0000 -152097.2566 -152097.2566 0.0000 13703.5072 -22944.4562 534946.2959 13703.5072 -22944.4562
ENERGY: 120 118.6827 680.2879 2909.9065 0.0000 -172396.3256 14830.1198 259.9552 0.0000 0.0000 -153597.3734 0.0000 -153597.3734 -153597.3734 0.0000 13320.9453 -4756.3105 534946.2959 13320.9453 -4756.3105
ENERGY: 140 109.1503 671.1470 2912.0864 0.0000 -174830.3117 14716.1436 337.7320 0.0000 0.0000 -156084.0525 0.0000 -156084.0525 -156084.0525 0.0000 12908.9510 -5423.1598 534946.2959 12908.9510 -5423.1598
ENERGY: 160 125.8612 667.1479 2914.1928 0.0000 -175966.9606 14735.1305 362.9169 0.0000 0.0000 -157161.7113 0.0000 -157161.7113 -157161.7113 0.0000 12806.9059 -5644.4498 534946.2959 12806.9059 -5644.4498
ENERGY: 180 303.5524 659.6723 2917.2961 0.0000 -177408.5526 14815.0032 395.3796 0.0000 0.0000 -158317.6491 0.0000 -158317.6491 -158317.6491 0.0000 12699.3238 -5901.4904 534946.2959 12699.3238 -5901.4904
ENERGY: 200 109.2101 628.4867 2923.3611 0.0000 -179544.4514 15071.2575 441.9005 0.0000 0.0000 -160370.2356 0.0000 -160370.2356 -160370.2356 0.0000 12659.9876 -6162.4801 534946.2959 12659.9876 -6162.4801
TCL: Setting parameter constraintScaling to 2.5
TCL: Minimizing for 100 steps
ETITLE: TS BOND ANGLE DIHED IMPRP ELECT VDW BOUNDARY MISC KINETIC TOTAL TEMP POTENTIAL TOTAL3 TEMPAVG PRESSURE GPRESSURE VOLUME PRESSAVG GPRESSAVG
ENERGY: 200 109.2101 628.4867 2923.3611 0.0000 -179544.4514 15071.2575 220.9502 0.0000 0.0000 -160591.1859 0.0000 -160591.1859 -160591.1859 0.0000 13208.4242 -25281.6756 534946.2959 13208.4242 -25281.6756
ENERGY: 220 169.1409 639.7026 2924.9595 0.0000 -180453.6070 15113.9554 291.2702 0.0000 0.0000 -161314.5785 0.0000 -161314.5785 -161314.5785 0.0000 13002.4314 -5925.0879 534946.2959 13002.4314 -5925.0879
ENERGY: 240 251.8961 643.1275 2921.3962 0.0000 -181894.4002 15358.9411 339.5741 0.0000 0.0000 -162379.4652 0.0000 -162379.4652 -162379.4652 0.0000 12964.0320 -6118.2484 534946.2959 12964.0320 -6118.2484
ENERGY: 260 173.9279 638.9739 2923.9175 0.0000 -184190.5880 15910.6968 438.0213 0.0000 0.0000 -164105.0506 0.0000 -164105.0506 -164105.0506 0.0000 13009.5499 -6317.3486 534946.2959 13009.5499 -6317.3486
ENERGY: 280 146.3223 648.6616 2918.2286 0.0000 -184721.4830 16071.4290 428.1335 0.0000 0.0000 -164508.7079 0.0000 -164508.7079 -164508.7079 0.0000 13128.4221 -6271.8351 534946.2959 13128.4221 -6271.8351
ENERGY: 300 230.3241 689.1896 2927.3102 0.0000 -186406.1113 16619.8041 426.0010 0.0000 0.0000 -165513.4822 0.0000 -165513.4822 -165513.4822 0.0000 13378.1906 -6213.1673 534946.2959 13378.1906 -6213.1673
TCL: Setting parameter constraintScaling to 1.25
TCL: Minimizing for 100 steps
ETITLE: TS BOND ANGLE DIHED IMPRP ELECT VDW BOUNDARY MISC KINETIC TOTAL TEMP POTENTIAL TOTAL3 TEMPAVG PRESSURE GPRESSURE VOLUME PRESSAVG GPRESSAVG
ENERGY: 300 230.3241 689.1896 2927.3102 0.0000 -186406.1113 16619.8041 213.0005 0.0000 0.0000 -165726.4827 0.0000 -165726.4827 -165726.4827 0.0000 13788.9919 -26295.6318 534946.2959 13788.9919 -26295.6318
ENERGY: 320 179.0577 665.0864 2910.7263 0.0000 -186920.8309 16729.0499 252.0499 0.0000 0.0000 -166184.8608 0.0000 -166184.8608 -166184.8608 0.0000 13769.6247 -5873.8919 534946.2959 13769.6247 -5873.8919
ENERGY: 340 201.2622 671.9215 2916.8766 0.0000 -188120.1543 17049.5128 326.6780 0.0000 0.0000 -166953.9032 0.0000 -166953.9032 -166953.9032 0.0000 13736.9567 -6023.4111 534946.2959 13736.9567 -6023.4111
ENERGY: 360 131.1568 640.6397 2905.3371 0.0000 -188769.2247 17269.2076 350.6204 0.0000 0.0000 -167472.2630 0.0000 -167472.2630 -167472.2630 0.0000 13820.6441 -6036.6832 534946.2959 13820.6441 -6036.6832
ENERGY: 380 211.3743 657.6910 2902.3056 0.0000 -189838.6309 17670.4299 350.9828 0.0000 0.0000 -168045.8474 0.0000 -168045.8474 -168045.8474 0.0000 14039.8919 -5943.1313 534946.2959 14039.8919 -5943.1313
ENERGY: 400 150.2804 641.3078 2906.4868 0.0000 -190480.2035 17907.4299 355.5452 0.0000 0.0000 -168519.1535 0.0000 -168519.1535 -168519.1535 0.0000 14133.7092 -5912.2083 534946.2959 14133.7092 -5912.2083
TCL: Setting parameter constraintScaling to 0.625
TCL: Minimizing for 100 steps
ETITLE: TS BOND ANGLE DIHED IMPRP ELECT VDW BOUNDARY MISC KINETIC TOTAL TEMP POTENTIAL TOTAL3 TEMPAVG PRESSURE GPRESSURE VOLUME PRESSAVG GPRESSAVG
ENERGY: 400 150.2804 641.3078 2906.4868 0.0000 -190480.2035 17907.4299 177.7726 0.0000 0.0000 -168696.9261 0.0000 -168696.9261 -168696.9261 0.0000 14415.0697 -26635.5439 534946.2959 14415.0697 -26635.5439
ENERGY: 420 163.7946 644.1971 2893.7726 0.0000 -191074.8327 18072.7406 216.4517 0.0000 0.0000 -169083.8760 0.0000 -169083.8760 -169083.8760 0.0000 14392.5255 -5720.7473 534946.2959 14392.5255 -5720.7473
ENERGY: 440 152.1617 651.3503 2890.1363 0.0000 -191896.0954 18339.5845 258.7283 0.0000 0.0000 -169604.1342 0.0000 -169604.1342 -169604.1342 0.0000 14432.1768 -5769.0666 534946.2959 14432.1768 -5769.0666
ENERGY: 460 148.8570 641.7895 2895.2411 0.0000 -192508.2695 18593.8055 245.3106 0.0000 0.0000 -169983.2659 0.0000 -169983.2659 -169983.2659 0.0000 14625.8052 -5649.9208 534946.2959 14625.8052 -5649.9208
ENERGY: 480 327.0078 775.8155 2906.2857 0.0000 -193887.5507 19115.6869 310.4254 0.0000 0.0000 -170452.3294 0.0000 -170452.3294 -170452.3294 0.0000 14662.3595 -5756.7663 534946.2959 14662.3595 -5756.7663
ENERGY: 500 174.8824 648.3807 2880.7396 0.0000 -194245.1450 19254.4768 299.5709 0.0000 0.0000 -170987.0947 0.0000 -170987.0947 -170987.0947 0.0000 14865.7236 -5591.1306 534946.2959 14865.7236 -5591.1306
TCL: Setting parameter constraintScaling to 0.3125
TCL: Minimizing for 100 steps
ETITLE: TS BOND ANGLE DIHED IMPRP ELECT VDW BOUNDARY MISC KINETIC TOTAL TEMP POTENTIAL TOTAL3 TEMPAVG PRESSURE GPRESSURE VOLUME PRESSAVG GPRESSAVG
ENERGY: 500 174.8824 648.3807 2880.7396 0.0000 -194245.1450 19254.4768 149.7854 0.0000 0.0000 -171136.8801 0.0000 -171136.8801 -171136.8801 0.0000 15057.3229 -26872.1544 534946.2959 15057.3229 -26872.1544
ENERGY: 520 175.7155 652.0561 2878.1009 0.0000 -194662.4546 19395.7607 163.9156 0.0000 0.0000 -171396.9058 0.0000 -171396.9058 -171396.9058 0.0000 15093.5652 -5420.1289 534946.2959 15093.5652 -5420.1289
ENERGY: 540 259.8462 697.4461 2871.3645 0.0000 -196292.4441 20014.3797 210.9471 0.0000 0.0000 -172238.4605 0.0000 -172238.4605 -172238.4605 0.0000 15343.5160 -5363.3068 534946.2959 15343.5160 -5363.3068
ENERGY: 560 166.1921 647.0116 2869.4523 0.0000 -196313.9151 20019.2627 209.0090 0.0000 0.0000 -172402.9874 0.0000 -172402.9874 -172402.9874 0.0000 15284.4804 -5399.0492 534946.2959 15284.4804 -5399.0492
ENERGY: 580 185.4809 670.2226 2871.6277 0.0000 -196994.4414 20288.0021 212.0128 0.0000 0.0000 -172767.0953 0.0000 -172767.0953 -172767.0953 0.0000 15492.6966 -5295.6936 534946.2959 15492.6966 -5295.6936
ENERGY: 600 201.9929 670.9483 2868.5536 0.0000 -198696.7662 21055.6052 226.3565 0.0000 0.0000 -173673.3097 0.0000 -173673.3097 -173673.3097 0.0000 15911.7789 -5067.8714 534946.2959 15911.7789 -5067.8714
TCL: Setting parameter constraintScaling to 0.15625
TCL: Minimizing for 100 steps
ETITLE: TS BOND ANGLE DIHED IMPRP ELECT VDW BOUNDARY MISC KINETIC TOTAL TEMP POTENTIAL TOTAL3 TEMPAVG PRESSURE GPRESSURE VOLUME PRESSAVG GPRESSAVG
ENERGY: 600 201.9929 670.9483 2868.5536 0.0000 -198696.7662 21055.6052 113.1783 0.0000 0.0000 -173786.4880 0.0000 -173786.4880 -173786.4880 0.0000 16037.4055 -26952.9042 534946.2959 16037.4055 -26952.9042
ENERGY: 620 146.6111 631.1054 2858.5245 0.0000 -198823.1662 21059.3080 120.3200 0.0000 0.0000 -174007.2973 0.0000 -174007.2973 -174007.2973 0.0000 15981.6128 -5002.3785 534946.2959 15981.6128 -5002.3785
ENERGY: 640 159.8104 648.0482 2848.8962 0.0000 -199276.1881 21184.6803 135.3591 0.0000 0.0000 -174299.3938 0.0000 -174299.3938 -174299.3938 0.0000 15968.6657 -5063.5584 534946.2959 15968.6657 -5063.5584
ENERGY: 660 167.8553 655.5119 2854.2258 0.0000 -199475.2506 21242.5389 137.4485 0.0000 0.0000 -174417.6702 0.0000 -174417.6702 -174417.6702 0.0000 16009.2474 -5049.6657 534946.2959 16009.2474 -5049.6657
ENERGY: 680 152.7181 649.0906 2849.9580 0.0000 -199944.7476 21412.8329 140.7640 0.0000 0.0000 -174739.3841 0.0000 -174739.3841 -174739.3841 0.0000 16134.3745 -4996.6533 534946.2959 16134.3745 -4996.6533
ENERGY: 700 176.3178 660.3105 2841.9236 0.0000 -200347.3196 21565.8313 151.4523 0.0000 0.0000 -174951.4841 0.0000 -174951.4841 -174951.4841 0.0000 16147.1399 -5016.2754 534946.2959 16147.1399 -5016.2754
TCL: Setting parameter constraintScaling to 0.078125
TCL: Minimizing for 100 steps
ETITLE: TS BOND ANGLE DIHED IMPRP ELECT VDW BOUNDARY MISC KINETIC TOTAL TEMP POTENTIAL TOTAL3 TEMPAVG PRESSURE GPRESSURE VOLUME PRESSAVG GPRESSAVG
ENERGY: 700 176.3178 660.3105 2841.9236 0.0000 -200347.3196 21565.8313 75.7261 0.0000 0.0000 -175027.2102 0.0000 -175027.2102 -175027.2102 0.0000 16219.5684 -27156.8688 534946.2959 16219.5684 -27156.8688
ENERGY: 720 164.2404 646.6367 2843.5950 0.0000 -200521.2131 21601.8637 77.3327 0.0000 0.0000 -175187.5446 0.0000 -175187.5446 -175187.5446 0.0000 16229.8559 -4955.8320 534946.2959 16229.8559 -4955.8320
ENERGY: 740 158.8135 657.8725 2842.9395 0.0000 -200892.7187 21746.0723 79.9700 0.0000 0.0000 -175407.0509 0.0000 -175407.0509 -175407.0509 0.0000 16320.8921 -4907.7724 534946.2959 16320.8921 -4907.7724
ENERGY: 760 209.8920 676.9081 2841.1412 0.0000 -201086.5534 21815.0353 83.4308 0.0000 0.0000 -175460.1460 0.0000 -175460.1460 -175460.1460 0.0000 16276.6161 -4957.7321 534946.2959 16276.6161 -4957.7321
ENERGY: 780 225.7702 716.8882 2839.7147 0.0000 -201767.8419 22132.9848 91.1359 0.0000 0.0000 -175761.3480 0.0000 -175761.3480 -175761.3480 0.0000 16471.2041 -4865.0259 534946.2959 16471.2041 -4865.0259
ENERGY: 800 183.2254 669.8111 2832.7096 0.0000 -201785.5957 22075.1985 90.0590 0.0000 0.0000 -175934.5921 0.0000 -175934.5921 -175934.5921 0.0000 16455.5563 -4879.4924 534946.2959 16455.5563 -4879.4924
TCL: Setting parameter constraintScaling to 0.0390625
TCL: Minimizing for 100 steps
ETITLE: TS BOND ANGLE DIHED IMPRP ELECT VDW BOUNDARY MISC KINETIC TOTAL TEMP POTENTIAL TOTAL3 TEMPAVG PRESSURE GPRESSURE VOLUME PRESSAVG GPRESSAVG
ENERGY: 800 183.2254 669.8111 2832.7096 0.0000 -201785.5957 22075.1985 45.0295 0.0000 0.0000 -175979.6216 0.0000 -175979.6216 -175979.6216 0.0000 16495.9733 -27225.1578 534946.2959 16495.9733 -27225.1578
ENERGY: 820 406.8019 722.0906 2832.0854 0.0000 -202105.8973 22203.8732 46.3316 0.0000 0.0000 -175894.7146 0.0000 -175894.7146 -175894.7146 0.0000 16562.3052 -4839.5875 534946.2959 16562.3052 -4839.5875
ENERGY: 840 259.0230 673.2838 2832.5737 0.0000 -202384.7764 22329.2832 47.7965 0.0000 0.0000 -176242.8162 0.0000 -176242.8162 -176242.8162 0.0000 16594.4643 -4797.2910 534946.2959 16594.4643 -4797.2910
ENERGY: 860 157.1715 655.7255 2829.2901 0.0000 -202488.6284 22357.7873 48.3423 0.0000 0.0000 -176440.3118 0.0000 -176440.3118 -176440.3118 0.0000 16662.1327 -4764.1582 534946.2959 16662.1327 -4764.1582
ENERGY: 880 202.0326 682.0156 2825.2018 0.0000 -202904.3148 22527.9100 51.0434 0.0000 0.0000 -176616.1114 0.0000 -176616.1114 -176616.1114 0.0000 16717.7027 -4742.4072 534946.2959 16717.7027 -4742.4072
ENERGY: 900 173.2963 661.2061 2821.9244 0.0000 -203509.8845 22781.1552 54.4502 0.0000 0.0000 -177017.8523 0.0000 -177017.8523 -177017.8523 0.0000 16837.4153 -4702.5816 534946.2959 16837.4153 -4702.5816
TCL: Setting parameter constraintScaling to 0.01953125
TCL: Minimizing for 100 steps
ETITLE: TS BOND ANGLE DIHED IMPRP ELECT VDW BOUNDARY MISC KINETIC TOTAL TEMP POTENTIAL TOTAL3 TEMPAVG PRESSURE GPRESSURE VOLUME PRESSAVG GPRESSAVG
ENERGY: 900 173.2963 661.2061 2821.9244 0.0000 -203509.8845 22781.1552 27.2251 0.0000 0.0000 -177045.0774 0.0000 -177045.0774 -177045.0774 0.0000 16860.2583 -27271.7699 534946.2959 16860.2583 -27271.7699
ENERGY: 920 166.0140 652.3844 2820.3801 0.0000 -203654.4742 22831.5455 27.3666 0.0000 0.0000 -177156.7836 0.0000 -177156.7836 -177156.7836 0.0000 16903.3091 -4657.8015 534946.2959 16903.3091 -4657.8015
ENERGY: 940 172.0731 661.8816 2818.3462 0.0000 -204033.2289 23001.3864 28.3918 0.0000 0.0000 -177351.1496 0.0000 -177351.1496 -177351.1496 0.0000 16995.3020 -4616.4516 534946.2959 16995.3020 -4616.4516
ENERGY: 960 167.7186 667.7694 2819.0083 0.0000 -204160.2928 23047.0819 28.8638 0.0000 0.0000 -177429.8506 0.0000 -177429.8506 -177429.8506 0.0000 17021.9066 -4605.1460 534946.2959 17021.9066 -4605.1460
ENERGY: 980 174.2272 665.3170 2816.0411 0.0000 -204539.1676 23214.0106 30.2475 0.0000 0.0000 -177639.3242 0.0000 -177639.3242 -177639.3242 0.0000 17062.0553 -4585.0981 534946.2959 17062.0553 -4585.0981
ENERGY: 1000 168.1296 662.8867 2811.3741 0.0000 -205179.0522 23511.6453 32.2260 0.0000 0.0000 -177992.7905 0.0000 -177992.7905 -177992.7905 0.0000 17225.1322 -4505.2961 534946.2959 17225.1322 -4505.2961
TCL: Setting parameter constraintScaling to 0
TCL: Minimizing for 5000 steps
ETITLE: TS BOND ANGLE DIHED IMPRP ELECT VDW BOUNDARY MISC KINETIC TOTAL TEMP POTENTIAL TOTAL3 TEMPAVG PRESSURE GPRESSURE VOLUME PRESSAVG GPRESSAVG
ENERGY: 1000 168.1296 662.8867 2811.3741 0.0000 -205179.0522 23511.6453 0.0000 0.0000 0.0000 -178025.0165 0.0000 -178025.0165 -178025.0165 0.0000 17250.7717 -27278.9111 534946.2959 17250.7717 -27278.9111
ENERGY: 2000 230.4145 679.8127 2804.4540 0.0000 -214615.6621 27741.4208 0.0000 0.0000 0.0000 -183159.5600 0.0000 -183159.5600 -183159.5600 0.0000 19474.2762 -3315.2151 534946.2959 19474.2762 -3315.2151
ENERGY: 3000 166.8810 665.1600 2796.0930 0.0000 -217521.5073 28883.3667 0.0000 0.0000 0.0000 -185010.0066 0.0000 -185010.0066 -185010.0066 0.0000 20112.2714 -2978.6300 534946.2959 20112.2714 -2978.6300
ENERGY: 4000 167.1602 664.1256 2788.0358 0.0000 -218742.4589 29392.1525 0.0000 0.0000 0.0000 -185730.9849 0.0000 -185730.9849 -185730.9849 0.0000 20376.3678 -2839.0737 534946.2959 20376.3678 -2839.0737
ENERGY: 5000 166.6694 666.1773 2782.2733 0.0000 -219431.5534 29658.1022 0.0000 0.0000 0.0000 -186158.3313 0.0000 -186158.3313 -186158.3313 0.0000 20508.1452 -2784.3814 534946.2959 20508.1452 -2784.3814
ENERGY: 6000 166.6145 665.4397 2784.0722 0.0000 -219898.0676 29884.8860 0.0000 0.0000 0.0000 -186397.0553 0.0000 -186397.0553 -186397.0553 0.0000 20636.0385 -2704.9905 534946.2959 20636.0385 -2704.9905
