Info: SIMULATION PARAMETERS:
Info: TIMESTEP               2
Info: NUMBER OF STEPS        0
Info: STEPS PER CYCLE        10
Info: PERIODIC CELL BASIS 1  72.449 0 0
Info: PERIODIC CELL BASIS 2  0 93.247 0
Info: PERIODIC CELL BASIS 3  0 0 79.185
Info: PERIODIC CELL CENTER   -0.248 -0.156 -0.047
Info: WRAPPING WATERS AROUND PERIODIC BOUNDARIES ON OUTPUT.
Info: WRAPPING ALL CLUSTERS AROUND PERIODIC BOUNDARIES ON OUTPUT.
Info: FIRST LDB TIMESTEP     50
Info: LAST LDB TIMESTEP     -1
Info: HOM BACKGROUND SCALING 1
Info: PME BACKGROUND SCALING 1
Info: MIN ATOMS PER PATCH    40
Info: INITIAL TEMPERATURE    0
Info: CENTER OF MASS MOVING INITIALLY? NO
Info: DIELECTRIC             1
Info: EXCLUDE                SCALED ONE-FOUR
Info: 1-4 ELECTROSTATICS SCALED BY 0.833333
Info: MODIFIED 1-4 VDW PARAMETERS WILL BE USED
Info: NO DCD TRAJECTORY OUTPUT
Info: NO EXTENDED SYSTEM TRAJECTORY OUTPUT
Info: NO VELOCITY DCD OUTPUT
Info: NO FORCE DCD OUTPUT
Info: OUTPUT FILENAME        ../replicas/rep109/equilibration/eq0
Info: NO RESTART FILE
Info: SWITCHING ACTIVE
Info: SWITCHING ON           10
Info: SWITCHING OFF          12
Info: PAIRLIST DISTANCE      13.5
Info: PAIRLIST SHRINK RATE   0.01
Info: PAIRLIST GROW RATE     0.01
Info: PAIRLIST TRIGGER       0.3
Info: PAIRLISTS PER CYCLE    2
Info: PAIRLISTS ENABLED
Info: MARGIN                 0
Info: HYDROGEN GROUP CUTOFF  2.5
Info: PATCH DIMENSION        16
Info: ENERGY OUTPUT STEPS    500
Info: CROSSTERM ENERGY INCLUDED IN DIHEDRAL
Info: TIMING OUTPUT STEPS    5000
Info: PRESSURE OUTPUT STEPS  500
Info: HARMONIC CONSTRAINTS ACTIVE
Info: HARMONIC CONS EXP      2
Info: HARMONIC CONS SCALING  10
Info: CONJUGATE GRADIENT MINIMIZATION ACTIVE
Info: LINE MINIMIZATION GOAL = 0.001
Info: BABY STEP SIZE = 0.01
Info: TINY STEP SIZE = 1e-06
Info: PARTICLE MESH EWALD (PME) ACTIVE
Info: PME TOLERANCE               1e-06
Info: PME EWALD COEFFICIENT       0.257952
Info: PME INTERPOLATION ORDER     4
Info: PME GRID DIMENSIONS         80 96 80
Info: PME MAXIMUM GRID SPACING    1
Info: FULL ELECTROSTATIC EVALUATION FREQUENCY      2
Info: USING VERLET I (r-RESPA) MTS SCHEME.
Info: C1 SPLITTING OF LONG RANGE ELECTROSTATICS
Info: PLACING ATOMS IN PATCHES BY HYDROGEN GROUPS
Info: RIGID BONDS TO HYDROGEN : ALL
Info:         ERROR TOLERANCE : 1e-05
Info:          MAX ITERATIONS : 100
Info: RIGID WATER USING SETTLE ALGORITHM
Info: RANDOM NUMBER SEED     1503694907
Info: USE HYDROGEN BONDS?    NO
Info: Using AMBER format force field!
Info: AMBER PARM FILE        ../build/complex.top
Info: COORDINATE PDB         ../build/complex.pdb
Info: Exclusions in PARM file will be ignored!
Info: SCNB (VDW SCALING)     2
Info: USING ARITHMETIC MEAN TO COMBINE L-J SIGMA PARAMETERS
Info: SUMMARY OF PARAMETERS:
Info: 71 BONDS
Info: 145 ANGLES
Info: 76 DIHEDRAL
Info: 0 IMPROPER
Info: 0 CROSSTERM
Info: 0 VDW
Info: 190 VDW_PAIRS
Info: 0 NBTHOLE_PAIRS
Info: STRUCTURE SUMMARY:
Info: 49394 ATOMS
Info: 49448 BONDS
Info: 8698 ANGLES
Info: 18780 DIHEDRALS
Info: 0 IMPROPERS
Info: 0 CROSSTERMS
Info: 0 EXCLUSIONS
Info: 2336 CONSTRAINTS
Info: 47058 RIGID BONDS
Info: 101124 DEGREES OF FREEDOM
Info: 17225 HYDROGEN GROUPS
Info: 4 ATOMS IN LARGEST HYDROGEN GROUP
Info: 17225 MIGRATION GROUPS
Info: 4 ATOMS IN LARGEST MIGRATION GROUP
Info: TOTAL MASS = 301478 amu
Info: TOTAL CHARGE = 1.00115e-05 e
Info: MASS DENSITY = 0.935846 g/cm^3
Info: ATOM DENSITY = 0.0923345 atoms/A^3
Info: ADDED 70656 IMPLICIT EXCLUSIONS
Info: NONBONDED TABLE R-SQUARED SPACING: 0.0625
Info: NONBONDED TABLE SIZE: 769 POINTS
Info: REMOVING COM VELOCITY 0 0 0
TCL: Minimizing for 100 steps
ETITLE: TS BOND ANGLE DIHED IMPRP ELECT VDW BOUNDARY MISC KINETIC TOTAL TEMP POTENTIAL TOTAL3 TEMPAVG PRESSURE GPRESSURE VOLUME PRESSAVG GPRESSAVG
ENERGY: 0 155.4176 1012.2698 2855.7272 0.0000 -154496.7912 207729.2052 0.0468 0.0000 0.0000 57255.8754 0.0000 57255.8754 57255.8754 0.0000 116350.2532 86546.1670 534946.2959 116350.2532 86546.1670
ENERGY: 20 304.7562 935.7913 2893.4663 0.0000 -158672.9415 17936.6590 143.9455 0.0000 0.0000 -136458.3233 0.0000 -136458.3233 -136458.3233 0.0000 16523.9382 -239.4564 534946.2959 16523.9382 -239.4564
ENERGY: 40 198.7460 799.5730 2896.9273 0.0000 -162811.4527 16417.9538 221.3030 0.0000 0.0000 -142276.9495 0.0000 -142276.9495 -142276.9495 0.0000 15011.2704 -2135.4696 534946.2959 15011.2704 -2135.4696
ENERGY: 60 130.5281 715.3440 2898.2166 0.0000 -167496.1575 15446.7538 315.2796 0.0000 0.0000 -147990.0353 0.0000 -147990.0353 -147990.0353 0.0000 13793.8836 -3799.3987 534946.2959 13793.8836 -3799.3987
ENERGY: 80 431.2716 765.6304 2904.3787 0.0000 -169937.5339 15121.1519 372.0124 0.0000 0.0000 -150343.0890 0.0000 -150343.0890 -150343.0890 0.0000 13270.3298 -4577.2459 534946.2959 13270.3298 -4577.2459
ENERGY: 100 119.3842 710.0598 2905.2592 0.0000 -171259.7136 14991.7868 387.3613 0.0000 0.0000 -152145.8623 0.0000 -152145.8623 -152145.8623 0.0000 13056.2653 -4908.1724 534946.2959 13056.2653 -4908.1724
TCL: Setting parameter constraintScaling to 5.0
TCL: Minimizing for 100 steps
ETITLE: TS BOND ANGLE DIHED IMPRP ELECT VDW BOUNDARY MISC KINETIC TOTAL TEMP POTENTIAL TOTAL3 TEMPAVG PRESSURE GPRESSURE VOLUME PRESSAVG GPRESSAVG
ENERGY: 100 119.3842 710.0598 2905.2592 0.0000 -171259.7136 14991.7868 193.6807 0.0000 0.0000 -152339.5430 0.0000 -152339.5430 -152339.5430 0.0000 13672.7714 -23021.8190 534946.2959 13672.7714 -23021.8190
ENERGY: 120 108.8808 687.5833 2912.9265 0.0000 -172865.8936 14798.2702 281.1919 0.0000 0.0000 -154077.0409 0.0000 -154077.0409 -154077.0409 0.0000 13218.2533 -4906.0194 534946.2959 13218.2533 -4906.0194
ENERGY: 140 309.3930 708.8614 2913.8024 0.0000 -174236.7522 14731.4776 326.6417 0.0000 0.0000 -155246.5761 0.0000 -155246.5761 -155246.5761 0.0000 12971.5184 -5303.2614 534946.2959 12971.5184 -5303.2614
ENERGY: 160 265.4290 683.1718 2923.1849 0.0000 -176276.3886 14757.3989 382.9284 0.0000 0.0000 -157264.2756 0.0000 -157264.2756 -157264.2756 0.0000 12740.8258 -5736.9868 534946.2959 12740.8258 -5736.9868
ENERGY: 180 268.7657 744.0993 2928.5659 0.0000 -178996.1769 15023.6438 473.3423 0.0000 0.0000 -159557.7599 0.0000 -159557.7599 -159557.7599 0.0000 12521.5623 -6217.6834 534946.2959 12521.5623 -6217.6834
ENERGY: 200 239.0208 694.0749 2941.3705 0.0000 -181556.8686 15587.1895 546.2771 0.0000 0.0000 -161548.9358 0.0000 -161548.9358 -161548.9358 0.0000 12582.6550 -6425.1528 534946.2959 12582.6550 -6425.1528
TCL: Setting parameter constraintScaling to 2.5
TCL: Minimizing for 100 steps
ETITLE: TS BOND ANGLE DIHED IMPRP ELECT VDW BOUNDARY MISC KINETIC TOTAL TEMP POTENTIAL TOTAL3 TEMPAVG PRESSURE GPRESSURE VOLUME PRESSAVG GPRESSAVG
ENERGY: 200 239.0208 694.0749 2941.3705 0.0000 -181556.8686 15587.1895 273.1385 0.0000 0.0000 -161822.0743 0.0000 -161822.0743 -161822.0743 0.0000 13229.5776 -25656.0078 534946.2959 13229.5776 -25656.0078
ENERGY: 220 246.6234 677.7130 2933.0092 0.0000 -182077.1042 15472.0293 337.6592 0.0000 0.0000 -162410.0700 0.0000 -162410.0700 -162410.0700 0.0000 12971.6368 -6090.7773 534946.2959 12971.6368 -6090.7773
ENERGY: 240 115.5950 674.5142 2928.4593 0.0000 -182573.5583 15511.1556 345.0227 0.0000 0.0000 -162998.8116 0.0000 -162998.8116 -162998.8116 0.0000 13036.6849 -6117.4562 534946.2959 13036.6849 -6117.4562
ENERGY: 260 144.8958 676.5348 2920.8363 0.0000 -184117.5704 15842.1072 391.8428 0.0000 0.0000 -164141.3535 0.0000 -164141.3535 -164141.3535 0.0000 13045.1046 -6258.0496 534946.2959 13045.1046 -6258.0496
ENERGY: 280 172.0966 701.3223 2917.6077 0.0000 -185429.8509 16231.4076 455.2114 0.0000 0.0000 -164952.2052 0.0000 -164952.2052 -164952.2052 0.0000 13143.8737 -6339.0983 534946.2959 13143.8737 -6339.0983
ENERGY: 300 126.6639 639.5663 2916.2506 0.0000 -186096.4477 16446.4944 481.4204 0.0000 0.0000 -165486.0520 0.0000 -165486.0520 -165486.0520 0.0000 13208.0200 -6342.6475 534946.2959 13208.0200 -6342.6475
TCL: Setting parameter constraintScaling to 1.25
TCL: Minimizing for 100 steps
ETITLE: TS BOND ANGLE DIHED IMPRP ELECT VDW BOUNDARY MISC KINETIC TOTAL TEMP POTENTIAL TOTAL3 TEMPAVG PRESSURE GPRESSURE VOLUME PRESSAVG GPRESSAVG
ENERGY: 300 126.6639 639.5663 2916.2506 0.0000 -186096.4477 16446.4944 240.7102 0.0000 0.0000 -165726.7623 0.0000 -165726.7623 -165726.7623 0.0000 13656.3927 -26352.8314 534946.2959 13656.3927 -26352.8314
ENERGY: 320 247.9553 662.0755 2911.8493 0.0000 -186751.1876 16601.3933 282.0861 0.0000 0.0000 -166045.8282 0.0000 -166045.8282 -166045.8282 0.0000 13578.2200 -6032.0496 534946.2959 13578.2200 -6032.0496
ENERGY: 340 132.7310 633.8123 2909.3330 0.0000 -187164.5934 16744.9772 285.7570 0.0000 0.0000 -166457.9829 0.0000 -166457.9829 -166457.9829 0.0000 13715.2397 -5957.2926 534946.2959 13715.2397 -5957.2926
ENERGY: 360 230.3734 654.8055 2910.1964 0.0000 -188316.7533 17128.6561 329.3867 0.0000 0.0000 -167063.3352 0.0000 -167063.3352 -167063.3352 0.0000 13764.9026 -6015.8007 534946.2959 13764.9026 -6015.8007
ENERGY: 380 502.8383 704.6997 2902.5494 0.0000 -190471.5139 17971.2358 405.9065 0.0000 0.0000 -167984.2842 0.0000 -167984.2842 -167984.2842 0.0000 13976.1108 -6025.6299 534946.2959 13976.1108 -6025.6299
ENERGY: 400 138.3478 634.0505 2898.5820 0.0000 -190601.0865 18005.7806 405.7155 0.0000 0.0000 -168518.6100 0.0000 -168518.6100 -168518.6100 0.0000 14109.7542 -5938.6119 534946.2959 14109.7542 -5938.6119
TCL: Setting parameter constraintScaling to 0.625
TCL: Minimizing for 100 steps
ETITLE: TS BOND ANGLE DIHED IMPRP ELECT VDW BOUNDARY MISC KINETIC TOTAL TEMP POTENTIAL TOTAL3 TEMPAVG PRESSURE GPRESSURE VOLUME PRESSAVG GPRESSAVG
ENERGY: 400 138.3478 634.0505 2898.5820 0.0000 -190601.0865 18005.7806 202.8578 0.0000 0.0000 -168721.4678 0.0000 -168721.4678 -168721.4678 0.0000 14413.3571 -26645.8187 534946.2959 14413.3571 -26645.8187
ENERGY: 420 142.0808 632.5900 2894.5807 0.0000 -191020.1737 18083.7550 224.9496 0.0000 0.0000 -169042.2177 0.0000 -169042.2177 -169042.2177 0.0000 14376.9521 -5715.3703 534946.2959 14376.9521 -5715.3703
ENERGY: 440 158.6121 632.7513 2888.6836 0.0000 -191905.6458 18374.6954 247.0295 0.0000 0.0000 -169603.8739 0.0000 -169603.8739 -169603.8739 0.0000 14465.8353 -5717.4658 534946.2959 14465.8353 -5717.4658
ENERGY: 460 188.1024 658.7331 2888.5521 0.0000 -192442.6090 18553.3408 268.8404 0.0000 0.0000 -169885.0402 0.0000 -169885.0402 -169885.0402 0.0000 14533.9612 -5716.6701 534946.2959 14533.9612 -5716.6701
ENERGY: 480 145.3150 635.6762 2881.2400 0.0000 -193270.0768 18868.9013 290.2731 0.0000 0.0000 -170448.6713 0.0000 -170448.6713 -170448.6713 0.0000 14661.9385 -5679.1646 534946.2959 14661.9385 -5679.1646
ENERGY: 500 149.5984 685.8149 2888.4475 0.0000 -193933.9738 19149.3170 289.4777 0.0000 0.0000 -170771.3183 0.0000 -170771.3183 -170771.3183 0.0000 14846.0934 -5588.7478 534946.2959 14846.0934 -5588.7478
TCL: Setting parameter constraintScaling to 0.3125
TCL: Minimizing for 100 steps
ETITLE: TS BOND ANGLE DIHED IMPRP ELECT VDW BOUNDARY MISC KINETIC TOTAL TEMP POTENTIAL TOTAL3 TEMPAVG PRESSURE GPRESSURE VOLUME PRESSAVG GPRESSAVG
ENERGY: 500 149.5984 685.8149 2888.4475 0.0000 -193933.9738 19149.3170 144.7388 0.0000 0.0000 -170916.0571 0.0000 -170916.0571 -170916.0571 0.0000 15035.9610 -26812.5338 534946.2959 15035.9610 -26812.5338
ENERGY: 520 152.1703 651.8368 2880.3782 0.0000 -194162.2939 19199.7949 159.3498 0.0000 0.0000 -171118.7639 0.0000 -171118.7639 -171118.7639 0.0000 14979.2846 -5461.9147 534946.2959 14979.2846 -5461.9147
ENERGY: 540 209.7958 680.4475 2874.1818 0.0000 -194959.5633 19478.8654 182.8198 0.0000 0.0000 -171533.4530 0.0000 -171533.4530 -171533.4530 0.0000 15082.4007 -5463.2030 534946.2959 15082.4007 -5463.2030
ENERGY: 560 159.9726 648.8339 2872.8343 0.0000 -195100.7697 19541.8902 179.8966 0.0000 0.0000 -171697.3422 0.0000 -171697.3422 -171697.3422 0.0000 15114.5025 -5432.2909 534946.2959 15114.5025 -5432.2909
ENERGY: 580 176.1065 656.9354 2873.8224 0.0000 -195925.7153 19856.7044 194.3062 0.0000 0.0000 -172167.8404 0.0000 -172167.8404 -172167.8404 0.0000 15281.7129 -5360.8793 534946.2959 15281.7129 -5360.8793
ENERGY: 600 171.1430 652.8537 2867.0218 0.0000 -196799.9926 20196.1208 214.0452 0.0000 0.0000 -172698.8081 0.0000 -172698.8081 -172698.8081 0.0000 15413.7953 -5329.8610 534946.2959 15413.7953 -5329.8610
TCL: Setting parameter constraintScaling to 0.15625
TCL: Minimizing for 100 steps
ETITLE: TS BOND ANGLE DIHED IMPRP ELECT VDW BOUNDARY MISC KINETIC TOTAL TEMP POTENTIAL TOTAL3 TEMPAVG PRESSURE GPRESSURE VOLUME PRESSAVG GPRESSAVG
ENERGY: 600 171.1430 652.8537 2867.0218 0.0000 -196799.9926 20196.1208 107.0226 0.0000 0.0000 -172805.8307 0.0000 -172805.8307 -172805.8307 0.0000 15533.5452 -26989.9842 534946.2959 15533.5452 -26989.9842
ENERGY: 620 160.9239 643.0134 2862.2716 0.0000 -197049.7094 20284.8304 112.3145 0.0000 0.0000 -172986.3556 0.0000 -172986.3556 -172986.3556 0.0000 15557.6514 -5218.5428 534946.2959 15557.6514 -5218.5428
ENERGY: 640 204.8074 674.1512 2862.5339 0.0000 -197516.4655 20452.0990 120.0357 0.0000 0.0000 -173202.8382 0.0000 -173202.8382 -173202.8382 0.0000 15614.4886 -5212.5923 534946.2959 15614.4886 -5212.5923
ENERGY: 660 167.2572 662.4391 2856.6933 0.0000 -198019.1313 20637.9614 128.7058 0.0000 0.0000 -173566.0744 0.0000 -173566.0744 -173566.0744 0.0000 15693.3014 -5190.8383 534946.2959 15693.3014 -5190.8383
ENERGY: 680 177.0810 666.5491 2850.8556 0.0000 -199219.6945 21116.9694 144.5285 0.0000 0.0000 -174263.7109 0.0000 -174263.7109 -174263.7109 0.0000 15922.8817 -5101.7507 534946.2959 15922.8817 -5101.7507
ENERGY: 700 157.1471 651.0955 2847.9074 0.0000 -199320.6364 21152.5480 146.0075 0.0000 0.0000 -174365.9309 0.0000 -174365.9309 -174365.9309 0.0000 15942.0977 -5091.5466 534946.2959 15942.0977 -5091.5466
TCL: Setting parameter constraintScaling to 0.078125
TCL: Minimizing for 100 steps
ETITLE: TS BOND ANGLE DIHED IMPRP ELECT VDW BOUNDARY MISC KINETIC TOTAL TEMP POTENTIAL TOTAL3 TEMPAVG PRESSURE GPRESSURE VOLUME PRESSAVG GPRESSAVG
ENERGY: 700 157.1471 651.0955 2847.9074 0.0000 -199320.6364 21152.5480 73.0038 0.0000 0.0000 -174438.9347 0.0000 -174438.9347 -174438.9347 0.0000 16014.2573 -27104.9665 534946.2959 16014.2573 -27104.9665
ENERGY: 720 279.3546 662.6722 2842.7240 0.0000 -199790.3464 21318.1087 77.8240 0.0000 0.0000 -174609.6629 0.0000 -174609.6629 -174609.6629 0.0000 16072.0531 -5017.9607 534946.2959 16072.0531 -5017.9607
ENERGY: 740 159.9919 647.1311 2839.8358 0.0000 -200088.4031 21421.6317 80.4812 0.0000 0.0000 -174939.3315 0.0000 -174939.3315 -174939.3315 0.0000 16130.9279 -4994.7474 534946.2959 16130.9279 -4994.7474
ENERGY: 760 180.9119 647.9158 2838.4715 0.0000 -200346.7347 21513.8651 82.2710 0.0000 0.0000 -175083.2993 0.0000 -175083.2993 -175083.2993 0.0000 16178.1061 -4977.0768 534946.2959 16178.1061 -4977.0768
ENERGY: 780 178.1813 648.3229 2833.6281 0.0000 -201151.5601 21814.7410 89.0784 0.0000 0.0000 -175587.6084 0.0000 -175587.6084 -175587.6084 0.0000 16321.3594 -4927.0328 534946.2959 16321.3594 -4927.0328
ENERGY: 800 180.7722 669.4087 2827.8386 0.0000 -202152.6581 22244.6328 97.9928 0.0000 0.0000 -176132.0130 0.0000 -176132.0130 -176132.0130 0.0000 16546.1151 -4824.9825 534946.2959 16546.1151 -4824.9825
TCL: Setting parameter constraintScaling to 0.0390625
TCL: Minimizing for 100 steps
ETITLE: TS BOND ANGLE DIHED IMPRP ELECT VDW BOUNDARY MISC KINETIC TOTAL TEMP POTENTIAL TOTAL3 TEMPAVG PRESSURE GPRESSURE VOLUME PRESSAVG GPRESSAVG
ENERGY: 800 180.7722 669.4087 2827.8386 0.0000 -202152.6581 22244.6328 48.9964 0.0000 0.0000 -176181.0094 0.0000 -176181.0094 -176181.0094 0.0000 16589.2733 -27213.6549 534946.2959 16589.2733 -27213.6549
ENERGY: 820 175.0710 686.5925 2830.8978 0.0000 -202376.3011 22320.5500 50.5021 0.0000 0.0000 -176312.6876 0.0000 -176312.6876 -176312.6876 0.0000 16613.4234 -4787.2153 534946.2959 16613.4234 -4787.2153
ENERGY: 840 161.7259 647.8639 2823.9667 0.0000 -202638.2912 22423.1884 51.7848 0.0000 0.0000 -176529.7616 0.0000 -176529.7616 -176529.7616 0.0000 16656.1489 -4764.6362 534946.2959 16656.1489 -4764.6362
ENERGY: 860 172.1251 669.1917 2823.6653 0.0000 -202869.0447 22516.3278 52.6158 0.0000 0.0000 -176635.1190 0.0000 -176635.1190 -176635.1190 0.0000 16718.2941 -4739.3589 534946.2959 16718.2941 -4739.3589
ENERGY: 880 170.4175 656.9663 2820.2234 0.0000 -203510.8577 22773.5224 55.9573 0.0000 0.0000 -177033.7708 0.0000 -177033.7708 -177033.7708 0.0000 16842.2093 -4686.9955 534946.2959 16842.2093 -4686.9955
ENERGY: 900 185.3280 666.1126 2815.4492 0.0000 -204207.6906 23104.7045 59.9410 0.0000 0.0000 -177376.1554 0.0000 -177376.1554 -177376.1554 0.0000 16997.0190 -4615.7531 534946.2959 16997.0190 -4615.7531
TCL: Setting parameter constraintScaling to 0.01953125
TCL: Minimizing for 100 steps
ETITLE: TS BOND ANGLE DIHED IMPRP ELECT VDW BOUNDARY MISC KINETIC TOTAL TEMP POTENTIAL TOTAL3 TEMPAVG PRESSURE GPRESSURE VOLUME PRESSAVG GPRESSAVG
ENERGY: 900 185.3280 666.1126 2815.4492 0.0000 -204207.6906 23104.7045 29.9705 0.0000 0.0000 -177406.1259 0.0000 -177406.1259 -177406.1259 0.0000 17021.5871 -27271.9144 534946.2959 17021.5871 -27271.9144
ENERGY: 920 168.7207 659.2348 2817.5589 0.0000 -204346.7464 23150.5186 30.3258 0.0000 0.0000 -177520.3876 0.0000 -177520.3876 -177520.3876 0.0000 17054.4492 -4572.7289 534946.2959 17054.4492 -4572.7289
ENERGY: 940 199.3150 678.4361 2819.8035 0.0000 -204690.5429 23293.6605 31.4368 0.0000 0.0000 -177667.8909 0.0000 -177667.8909 -177667.8909 0.0000 17114.3016 -4542.9157 534946.2959 17114.3016 -4542.9157
ENERGY: 960 170.1434 663.4699 2814.8628 0.0000 -204775.2209 23328.0347 31.6966 0.0000 0.0000 -177767.0136 0.0000 -177767.0136 -177767.0136 0.0000 17150.4872 -4531.1848 534946.2959 17150.4872 -4531.1848
ENERGY: 980 177.6752 664.9763 2811.2862 0.0000 -205490.4103 23648.7707 33.9506 0.0000 0.0000 -178153.7513 0.0000 -178153.7513 -178153.7513 0.0000 17313.6758 -4454.9090 534946.2959 17313.6758 -4454.9090
ENERGY: 1000 174.4193 664.4699 2812.6560 0.0000 -205941.1306 23861.3740 35.5390 0.0000 0.0000 -178392.6723 0.0000 -178392.6723 -178392.6723 0.0000 17401.1405 -4406.1161 534946.2959 17401.1405 -4406.1161
TCL: Setting parameter constraintScaling to 0
TCL: Minimizing for 5000 steps
ETITLE: TS BOND ANGLE DIHED IMPRP ELECT VDW BOUNDARY MISC KINETIC TOTAL TEMP POTENTIAL TOTAL3 TEMPAVG PRESSURE GPRESSURE VOLUME PRESSAVG GPRESSAVG
ENERGY: 1000 174.4193 664.4699 2812.6560 0.0000 -205941.1306 23861.3740 0.0000 0.0000 0.0000 -178428.2113 0.0000 -178428.2113 -178428.2113 0.0000 17428.6030 -27279.3152 534946.2959 17428.6030 -27279.3152
ENERGY: 2000 167.4586 662.1921 2800.4475 0.0000 -214931.6202 27801.0091 0.0000 0.0000 0.0000 -183500.5129 0.0000 -183500.5129 -183500.5129 0.0000 19536.9594 -3287.2813 534946.2959 19536.9594 -3287.2813
ENERGY: 3000 168.9607 666.3236 2793.3630 0.0000 -217614.4941 28912.2942 0.0000 0.0000 0.0000 -185073.5526 0.0000 -185073.5526 -185073.5526 0.0000 20113.4312 -2993.9340 534946.2959 20113.4312 -2993.9340
ENERGY: 4000 168.0126 667.0695 2788.8952 0.0000 -218778.9879 29393.2630 0.0000 0.0000 0.0000 -185761.7476 0.0000 -185761.7476 -185761.7476 0.0000 20367.9978 -2862.4048 534946.2959 20367.9978 -2862.4048
ENERGY: 5000 165.3876 665.6555 2788.8965 0.0000 -219424.8960 29659.6985 0.0000 0.0000 0.0000 -186145.2579 0.0000 -186145.2579 -186145.2579 0.0000 20511.6108 -2775.2388 534946.2959 20511.6108 -2775.2388
ENERGY: 6000 166.5069 665.2998 2789.0171 0.0000 -219845.0485 29822.4957 0.0000 0.0000 0.0000 -186401.7289 0.0000 -186401.7289 -186401.7289 0.0000 20598.2775 -2729.2476 534946.2959 20598.2775 -2729.2476
