Info: SIMULATION PARAMETERS:
Info: TIMESTEP               1
Info: NUMBER OF STEPS        0
Info: STEPS PER CYCLE        10
Info: PERIODIC CELL BASIS 1  72.449 0 0
Info: PERIODIC CELL BASIS 2  0 93.247 0
Info: PERIODIC CELL BASIS 3  0 0 79.185
Info: PERIODIC CELL CENTER   -0.248 -0.156 -0.047
Info: WRAPPING WATERS AROUND PERIODIC BOUNDARIES ON OUTPUT.
Info: WRAPPING ALL CLUSTERS AROUND PERIODIC BOUNDARIES ON OUTPUT.
Info: FIRST LDB TIMESTEP     50
Info: LAST LDB TIMESTEP     -1
Info: HOM BACKGROUND SCALING 1
Info: PME BACKGROUND SCALING 1
Info: MIN ATOMS PER PATCH    40
Info: VELOCITY FILE          ../replicas/rep115/equilibration/eq1.vel
Info: CENTER OF MASS MOVING INITIALLY? NO
Info: DIELECTRIC             1
Info: EXCLUDE                SCALED ONE-FOUR
Info: 1-4 ELECTROSTATICS SCALED BY 0.833333
Info: MODIFIED 1-4 VDW PARAMETERS WILL BE USED
Info: DCD FILENAME           ../replicas/rep115/equilibration/eq2.dcd
Info: DCD FREQUENCY          5000
Info: DCD FIRST STEP         5000
Info: DCD FILE WILL CONTAIN UNIT CELL DATA
Info: XST FILENAME           ../replicas/rep115/equilibration/eq2.xst
Info: XST FREQUENCY          5000
Info: NO VELOCITY DCD OUTPUT
Info: NO FORCE DCD OUTPUT
Info: OUTPUT FILENAME        ../replicas/rep115/equilibration/eq2
Info: RESTART FILENAME       ../replicas/rep115/equilibration/eq2.restart
Info: RESTART FREQUENCY      5000
Info: BINARY RESTART FILES WILL BE USED
Info: SWITCHING ACTIVE
Info: SWITCHING ON           10
Info: SWITCHING OFF          12
Info: PAIRLIST DISTANCE      13.5
Info: PAIRLIST SHRINK RATE   0.01
Info: PAIRLIST GROW RATE     0.01
Info: PAIRLIST TRIGGER       0.3
Info: PAIRLISTS PER CYCLE    2
Info: PAIRLISTS ENABLED
Info: MARGIN                 0.48
Info: HYDROGEN GROUP CUTOFF  2.5
Info: PATCH DIMENSION        16.48
Info: ENERGY OUTPUT STEPS    500
Info: CROSSTERM ENERGY INCLUDED IN DIHEDRAL
Info: TIMING OUTPUT STEPS    5000
Info: PRESSURE OUTPUT STEPS  500
Info: HARMONIC CONSTRAINTS ACTIVE
Info: HARMONIC CONS EXP      2
Info: HARMONIC CONS SCALING  10
Info: LANGEVIN DYNAMICS ACTIVE
Info: LANGEVIN TEMPERATURE   300
Info: LANGEVIN USING BBK INTEGRATOR
Info: LANGEVIN DAMPING COEFFICIENT IS 5 INVERSE PS
Info: LANGEVIN DYNAMICS NOT APPLIED TO HYDROGENS
Info: BERENDSEN PRESSURE COUPLING ACTIVE
Info:     TARGET PRESSURE IS 1 BAR
Info:     COMPRESSIBILITY ESTIMATE IS 4.57e-05 BAR^(-1)
Info:     RELAXATION TIME IS 100 FS
Info:     APPLIED EVERY 2 STEPS
Info:     PRESSURE CONTROL IS GROUP-BASED
Info:       CELL FLUCTUATION IS ISOTROPIC
Info: PARTICLE MESH EWALD (PME) ACTIVE
Info: PME TOLERANCE               1e-06
Info: PME EWALD COEFFICIENT       0.257952
Info: PME INTERPOLATION ORDER     4
Info: PME GRID DIMENSIONS         80 96 80
Info: PME MAXIMUM GRID SPACING    1
Info: FULL ELECTROSTATIC EVALUATION FREQUENCY      2
Info: USING VERLET I (r-RESPA) MTS SCHEME.
Info: C1 SPLITTING OF LONG RANGE ELECTROSTATICS
Info: PLACING ATOMS IN PATCHES BY HYDROGEN GROUPS
Info: RIGID BONDS TO HYDROGEN : WATER
Info:         ERROR TOLERANCE : 1e-05
Info:          MAX ITERATIONS : 100
Info: RIGID WATER USING SETTLE ALGORITHM
Info: RANDOM NUMBER SEED     1503707696
Info: USE HYDROGEN BONDS?    NO
Info: Using AMBER format force field!
Info: AMBER PARM FILE        ../build/complex.top
Info: COORDINATE PDB         ../replicas/rep115/equilibration/eq1.coor
Info: Exclusions in PARM file will be ignored!
Info: SCNB (VDW SCALING)     2
Info: USING ARITHMETIC MEAN TO COMBINE L-J SIGMA PARAMETERS
Info: SUMMARY OF PARAMETERS:
Info: 71 BONDS
Info: 145 ANGLES
Info: 76 DIHEDRAL
Info: 0 IMPROPER
Info: 0 CROSSTERM
Info: 0 VDW
Info: 190 VDW_PAIRS
Info: 0 NBTHOLE_PAIRS
Info: STRUCTURE SUMMARY:
Info: 49394 ATOMS
Info: 49448 BONDS
Info: 8698 ANGLES
Info: 18780 DIHEDRALS
Info: 0 IMPROPERS
Info: 0 CROSSTERMS
Info: 0 EXCLUSIONS
Info: 2336 CONSTRAINTS
Info: 44667 RIGID BONDS
Info: 103515 DEGREES OF FREEDOM
Info: 17225 HYDROGEN GROUPS
Info: 4 ATOMS IN LARGEST HYDROGEN GROUP
Info: 17225 MIGRATION GROUPS
Info: 4 ATOMS IN LARGEST MIGRATION GROUP
Info: TOTAL MASS = 301478 amu
Info: TOTAL CHARGE = 1.00115e-05 e
Info: MASS DENSITY = 0.935846 g/cm^3
Info: ATOM DENSITY = 0.0923345 atoms/A^3
Info: ADDED 70656 IMPLICIT EXCLUSIONS
Info: NONBONDED TABLE R-SQUARED SPACING: 0.0625
Info: NONBONDED TABLE SIZE: 769 POINTS
Info: REMOVING COM VELOCITY 0.00470544 -0.00195928 -0.0178233
TCL: Running for 5000 steps
ETITLE: TS BOND ANGLE DIHED IMPRP ELECT VDW BOUNDARY MISC KINETIC TOTAL TEMP POTENTIAL TOTAL3 TEMPAVG PRESSURE GPRESSURE VOLUME PRESSAVG GPRESSAVG
ENERGY: 0 389.3382 1195.6330 2914.0319 0.0000 -212782.1195 29524.8448 0.0000 0.0000 10024.0054 -168734.2663 97.4604 -178758.2717 -168724.7155 97.4604 -2425.7906 -2523.8063 534946.2959 -2425.7906 -2523.8063
ENERGY: 1000 1288.4636 1925.5871 3097.2509 0.0000 -193428.3043 26371.9393 753.7077 0.0000 24217.1238 -135774.2320 235.4559 -159991.3557 -135749.4673 219.0303 -107.4478 -32.2759 520696.2181 -19.9813 -20.4073
ENERGY: 2000 1444.8540 2162.4683 3133.9630 0.0000 -183697.7707 23304.3054 811.7630 0.0000 28033.4359 -124806.9811 272.5608 -152840.4169 -124761.5767 265.9775 -20.2570 -40.9360 516167.1005 -11.1920 -10.9918
ENERGY: 3000 1512.4763 2201.3657 3135.5859 0.0000 -178334.4401 21186.3152 773.2841 0.0000 29552.3100 -119973.1029 287.3284 -149525.4130 -119936.6340 285.2861 -64.7884 -22.7489 511228.4708 -18.3630 -18.9117
ENERGY: 4000 1531.2200 2172.8922 3112.5827 0.0000 -176784.8464 20795.4090 786.8687 0.0000 30442.5107 -117943.3631 295.9835 -148385.8738 -117911.4849 293.2929 -34.7685 -1.3125 507566.4441 -9.4811 -9.4728
ENERGY: 5000 1571.5972 2244.7360 3161.2824 0.0000 -175757.9753 20396.2618 782.7964 0.0000 30440.6132 -117160.6883 295.9651 -147601.3015 -117125.5925 296.4281 -53.4061 6.6554 505420.5742 -8.5308 -8.3525
TCL: Setting parameter constraintScaling to 5.0
TCL: Running for 5000 steps
ETITLE: TS BOND ANGLE DIHED IMPRP ELECT VDW BOUNDARY MISC KINETIC TOTAL TEMP POTENTIAL TOTAL3 TEMPAVG PRESSURE GPRESSURE VOLUME PRESSAVG GPRESSAVG
ENERGY: 5000 1571.5972 2244.7360 3161.2824 0.0000 -175757.9753 20396.2618 391.3982 0.0000 30438.5420 -117554.1577 295.9450 -147992.6997 -117512.4842 295.9450 -99.7312 -45.5742 505420.5742 -99.7312 -45.5742
ENERGY: 6000 1610.0661 2330.9707 3161.7271 0.0000 -175803.7492 20297.4119 674.2437 0.0000 30754.7430 -116974.5868 299.0193 -147729.3298 -116924.5445 298.5032 -102.6724 -41.5546 505163.7534 6.8601 6.2513
ENERGY: 7000 1521.5788 2259.2359 3136.0430 0.0000 -175423.7521 20112.8915 647.5570 0.0000 30744.5483 -117001.8978 298.9202 -147746.4460 -116950.5092 298.6631 -39.9395 -29.6146 504276.5406 -5.4756 -5.3060
ENERGY: 8000 1545.3178 2231.1266 3154.9291 0.0000 -175932.1979 20416.5419 640.2244 0.0000 30746.8911 -117197.1670 298.9429 -147944.0581 -117151.4657 298.3081 -62.4772 -12.2252 502143.0771 -11.2992 -11.1713
ENERGY: 9000 1601.9820 2259.6384 3150.9592 0.0000 -175328.9312 19900.3024 640.3867 0.0000 30521.0150 -117254.6475 296.7468 -147775.6625 -117211.3968 298.6388 -48.2677 -12.9415 501095.5506 2.1409 2.0337
ENERGY: 10000 1600.3136 2362.1686 3169.0349 0.0000 -175814.4371 20244.0798 676.0293 0.0000 30798.3660 -116964.4448 299.4434 -147762.8108 -116913.4389 299.3919 41.8171 14.4338 499879.8688 -5.1518 -4.9772
TCL: Setting parameter constraintScaling to 2.5
TCL: Running for 5000 steps
ETITLE: TS BOND ANGLE DIHED IMPRP ELECT VDW BOUNDARY MISC KINETIC TOTAL TEMP POTENTIAL TOTAL3 TEMPAVG PRESSURE GPRESSURE VOLUME PRESSAVG GPRESSAVG
ENERGY: 10000 1600.3136 2362.1686 3169.0349 0.0000 -175814.4371 20244.0798 338.0147 0.0000 30796.3226 -117304.5028 299.4236 -148100.8254 -117262.1411 299.4236 12.8419 -16.5121 499879.8688 12.8419 -16.5121
ENERGY: 11000 1695.7728 2359.1505 3164.9131 0.0000 -175882.0169 20014.9390 502.1383 0.0000 30739.7128 -117405.3902 298.8732 -148145.1030 -117373.1080 298.9187 -72.4760 -6.9554 499150.8860 -10.3711 -10.5754
ENERGY: 12000 1622.8001 2300.9965 3171.4451 0.0000 -175382.9996 20105.9550 483.5903 0.0000 30519.9128 -117178.2998 296.7361 -147698.2126 -117130.8880 298.4295 -88.5288 -29.8890 500644.1265 5.2457 5.7193
ENERGY: 13000 1623.6978 2350.3357 3177.5048 0.0000 -175550.3890 20089.8074 503.7400 0.0000 30751.0442 -117054.2590 298.9833 -147805.3033 -117003.9855 299.5909 -58.8625 2.6425 500634.5020 6.1065 5.5735
ENERGY: 14000 1624.4632 2349.0871 3167.5731 0.0000 -176358.5027 20234.8375 502.1875 0.0000 30998.4438 -117481.9107 301.3887 -148480.3544 -117438.8130 299.2578 20.7244 63.5472 497632.6717 -13.9547 -13.7071
ENERGY: 15000 1695.7305 2323.0005 3182.1611 0.0000 -176410.5994 20338.8036 530.1054 0.0000 30762.8776 -117577.9208 299.0984 -148340.7984 -117537.3355 299.1132 -24.5024 -18.1483 499713.7285 4.6862 4.6310
TCL: Setting parameter constraintScaling to 1.25
TCL: Running for 5000 steps
ETITLE: TS BOND ANGLE DIHED IMPRP ELECT VDW BOUNDARY MISC KINETIC TOTAL TEMP POTENTIAL TOTAL3 TEMPAVG PRESSURE GPRESSURE VOLUME PRESSAVG GPRESSAVG
ENERGY: 15000 1695.7305 2323.0005 3182.1611 0.0000 -176410.5994 20338.8036 265.0527 0.0000 30760.8341 -117845.0170 299.0785 -148605.8511 -117800.3218 299.0785 -70.5053 -61.3276 499713.7285 -70.5053 -61.3276
ENERGY: 16000 1615.8430 2371.0983 3172.0488 0.0000 -175667.4699 20155.9071 415.4440 0.0000 30733.5052 -117203.6235 298.8128 -147937.1287 -117172.8594 298.7451 -103.5535 -15.5732 498900.8410 1.8624 1.8243
ENERGY: 17000 1649.9793 2336.0259 3218.6920 0.0000 -175945.2840 20140.2804 394.6516 0.0000 30703.6501 -117502.0047 298.5225 -148205.6548 -117463.6783 299.3714 -92.6050 -82.8796 499086.6939 -3.5021 -3.5331
ENERGY: 18000 1648.5573 2358.2223 3170.6112 0.0000 -175946.4159 20244.0459 406.9962 0.0000 30693.2174 -117424.7657 298.4211 -148117.9830 -117380.4962 299.0353 14.6134 -8.9471 499413.7554 0.8889 1.0182
ENERGY: 19000 1650.2562 2308.4841 3191.6432 0.0000 -176050.8867 20213.2894 410.6725 0.0000 30811.0929 -117465.4485 299.5672 -148276.5414 -117411.7128 299.3868 8.3510 13.0844 496948.1761 -12.4787 -13.0781
ENERGY: 20000 1623.8859 2356.0028 3170.4684 0.0000 -175906.2616 20319.5316 398.1408 0.0000 30755.4072 -117282.8248 299.0257 -148038.2320 -117232.9792 299.2648 20.0154 4.2524 498537.8707 4.4717 4.8859
TCL: Setting parameter constraintScaling to 0.625
TCL: Running for 5000 steps
ETITLE: TS BOND ANGLE DIHED IMPRP ELECT VDW BOUNDARY MISC KINETIC TOTAL TEMP POTENTIAL TOTAL3 TEMPAVG PRESSURE GPRESSURE VOLUME PRESSAVG GPRESSAVG
ENERGY: 20000 1623.8859 2356.0028 3170.4684 0.0000 -175906.2616 20319.5316 199.0704 0.0000 30753.3486 -117483.9539 299.0057 -148237.3024 -117441.8203 299.0057 12.7772 -1.6525 498537.8707 12.7772 -1.6525
ENERGY: 21000 1603.5576 2418.3113 3194.4182 0.0000 -175250.6634 19756.8555 316.0434 0.0000 30957.2280 -117004.2494 300.9880 -147961.4774 -116955.0131 300.7079 -18.6323 -10.8056 498286.9324 -10.1577 -10.0455
ENERGY: 22000 1707.6310 2491.0288 3188.0511 0.0000 -175897.7185 20147.4875 307.7430 0.0000 30794.0524 -117261.7247 299.4015 -148055.7771 -117220.0871 300.0521 -57.3063 11.0753 499136.0275 -2.1575 -2.2765
ENERGY: 23000 1674.5522 2415.8175 3192.4474 0.0000 -175851.0446 20194.3369 327.8359 0.0000 30837.0825 -117208.9721 299.8198 -148046.0547 -117152.5183 301.0599 -51.7619 -57.7546 499746.2556 8.6637 8.6751
ENERGY: 24000 1670.3647 2406.9331 3176.9152 0.0000 -175884.0292 19975.5469 320.1439 0.0000 30850.9712 -117483.1541 299.9549 -148334.1253 -117440.2196 299.8749 73.0629 34.2014 497346.2823 -14.8319 -14.6691
ENERGY: 25000 1647.5967 2383.9953 3202.9634 0.0000 -175930.5999 20217.6715 317.5861 0.0000 30638.7460 -117522.0410 297.8915 -148160.7870 -117486.8935 299.0574 93.2085 56.7249 497210.4180 6.7902 6.7729
TCL: Setting parameter constraintScaling to 0.3125
TCL: Running for 5000 steps
ETITLE: TS BOND ANGLE DIHED IMPRP ELECT VDW BOUNDARY MISC KINETIC TOTAL TEMP POTENTIAL TOTAL3 TEMPAVG PRESSURE GPRESSURE VOLUME PRESSAVG GPRESSAVG
ENERGY: 25000 1647.5967 2383.9953 3202.9634 0.0000 -175930.5999 20217.6715 158.7930 0.0000 30636.6818 -117682.8983 297.8714 -148319.5801 -117641.1301 297.8714 60.9823 25.1517 497210.4180 60.9823 25.1517
ENERGY: 26000 1637.2517 2427.1122 3196.9778 0.0000 -175570.5600 20021.7907 248.6208 0.0000 30728.1496 -117310.6572 298.7607 -148038.8068 -117279.9992 300.2004 101.9052 54.5708 498533.4104 7.1754 7.8220
ENERGY: 27000 1607.2768 2369.5191 3192.2992 0.0000 -175653.9178 20013.2591 270.0778 0.0000 31103.1868 -117098.2989 302.4071 -148201.4857 -117049.4310 300.5120 39.9121 10.6316 497912.7442 1.3176 0.6938
ENERGY: 28000 1681.2846 2402.2823 3182.6220 0.0000 -175604.1285 19929.4250 263.0237 0.0000 30649.8466 -117495.6443 297.9994 -148145.4910 -117446.8633 300.5096 -33.0928 3.8076 497081.4686 -1.5097 -1.0398
ENERGY: 29000 1657.3821 2427.4621 3224.9228 0.0000 -175944.3925 20034.7255 257.4066 0.0000 30706.8204 -117635.6730 298.5533 -148342.4933 -117588.8115 298.3509 -48.8225 11.3279 497005.0312 -8.3404 -8.7012
ENERGY: 30000 1625.8073 2443.1164 3241.1029 0.0000 -176077.9998 20074.5148 240.5858 0.0000 30710.3238 -117742.5488 298.5874 -148452.8726 -117699.4821 299.3204 5.3025 18.0807 497730.5839 1.2315 1.2167
TCL: Setting parameter constraintScaling to 0.15625
TCL: Running for 5000 steps
ETITLE: TS BOND ANGLE DIHED IMPRP ELECT VDW BOUNDARY MISC KINETIC TOTAL TEMP POTENTIAL TOTAL3 TEMPAVG PRESSURE GPRESSURE VOLUME PRESSAVG GPRESSAVG
ENERGY: 30000 1625.8073 2443.1164 3241.1029 0.0000 -176077.9998 20074.5148 120.2929 0.0000 30708.3253 -117864.8402 298.5680 -148573.1655 -117821.5829 298.5680 -62.0673 -55.5185 497730.5839 -62.0673 -55.5185
ENERGY: 31000 1676.9326 2411.3313 3199.8367 0.0000 -175954.3252 20119.2948 203.4273 0.0000 30595.8651 -117747.6373 297.4746 -148343.5025 -117712.7081 299.2669 -74.9242 6.5144 498414.3626 8.8481 8.5582
ENERGY: 32000 1618.2471 2394.6984 3209.5900 0.0000 -175971.5303 20229.4263 209.5912 0.0000 30661.6892 -117648.2880 298.1146 -148309.9772 -117605.5835 299.1300 46.8549 31.7840 499063.0347 14.4641 14.6345
ENERGY: 33000 1618.3736 2424.3830 3182.1625 0.0000 -176040.9213 20214.5114 201.8447 0.0000 30724.2040 -117675.4421 298.7224 -148399.6461 -117629.4733 298.6461 79.3586 93.4682 497622.8533 -9.5319 -9.3342
ENERGY: 34000 1667.1402 2444.9482 3183.7186 0.0000 -176155.2620 20254.3294 188.3023 0.0000 30977.2570 -117439.5664 301.1827 -148416.8234 -117386.8052 300.2957 -27.7031 -54.3171 497671.6288 -5.4636 -5.5230
ENERGY: 35000 1602.0934 2381.6585 3226.0108 0.0000 -175885.9078 20162.4877 194.5374 0.0000 30693.4229 -117625.6971 298.4231 -148319.1200 -117591.8293 299.7968 28.4129 56.2168 498384.7264 7.3663 7.6245
TCL: Setting parameter constraintScaling to 0.078125
TCL: Running for 5000 steps
ETITLE: TS BOND ANGLE DIHED IMPRP ELECT VDW BOUNDARY MISC KINETIC TOTAL TEMP POTENTIAL TOTAL3 TEMPAVG PRESSURE GPRESSURE VOLUME PRESSAVG GPRESSAVG
ENERGY: 35000 1602.0934 2381.6585 3226.0108 0.0000 -175885.9078 20162.4877 97.2687 0.0000 30691.3838 -117725.0049 298.4033 -148416.3887 -117680.5529 298.4033 -1.6649 32.2197 498384.7264 -1.6649 32.2197
ENERGY: 36000 1658.7699 2344.1351 3214.7717 0.0000 -175752.4280 19972.4162 144.9292 0.0000 30776.6653 -117640.7406 299.2324 -148417.4058 -117592.8368 299.3214 -103.6805 35.3181 497110.7228 8.3514 7.6773
ENERGY: 37000 1594.9979 2418.6065 3216.3497 0.0000 -175795.2594 20007.6021 154.9069 0.0000 30756.5466 -117646.2498 299.0368 -148402.7964 -117598.5863 299.7716 -31.2388 -77.5641 496404.3661 3.2542 3.3006
ENERGY: 38000 1622.1557 2384.2279 3217.8604 0.0000 -175856.7270 20181.7103 157.7272 0.0000 30801.5539 -117491.4916 299.4744 -148293.0455 -117438.6675 299.8115 53.6410 49.2346 497804.3715 3.3543 2.9538
ENERGY: 39000 1642.3645 2492.6307 3170.7741 0.0000 -175808.9256 20116.7991 154.3446 0.0000 30787.8406 -117444.1720 299.3411 -148232.0126 -117399.2893 299.3066 -15.3479 4.3114 497781.8785 -1.3090 -0.9714
ENERGY: 40000 1652.1514 2398.3358 3225.1572 0.0000 -175918.2031 19901.3038 179.4291 0.0000 31100.3837 -117461.4422 302.3798 -148561.8259 -117425.7003 301.0179 -139.2962 -61.2731 498492.7596 11.6417 11.2907
TCL: Setting parameter constraintScaling to 0.0390625
TCL: Running for 5000 steps
ETITLE: TS BOND ANGLE DIHED IMPRP ELECT VDW BOUNDARY MISC KINETIC TOTAL TEMP POTENTIAL TOTAL3 TEMPAVG PRESSURE GPRESSURE VOLUME PRESSAVG GPRESSAVG
ENERGY: 40000 1652.1514 2398.3358 3225.1572 0.0000 -175918.2031 19901.3038 89.7145 0.0000 31098.3416 -117553.1988 302.3600 -148651.5404 -117510.1772 302.3600 -180.4038 -96.8514 498492.7596 -180.4038 -96.8514
ENERGY: 41000 1639.9198 2414.3182 3216.8387 0.0000 -176117.7046 20217.9285 116.5187 0.0000 31117.6400 -117394.5406 302.5476 -148512.1806 -117358.8401 300.3410 99.8548 6.9108 499464.3406 0.0329 -0.1073
ENERGY: 42000 1567.1447 2407.4348 3226.5480 0.0000 -175508.9272 19902.3648 123.6066 0.0000 30829.8704 -117451.9579 299.7497 -148281.8282 -117394.5862 299.4040 109.3931 63.9610 498148.2183 0.9924 0.5458
ENERGY: 43000 1562.0701 2428.4105 3206.1879 0.0000 -176146.4358 20384.0582 116.9733 0.0000 31073.2184 -117375.5175 302.1157 -148448.7359 -117329.1244 300.2822 -30.8440 14.9626 498327.0162 4.2188 4.5874
ENERGY: 44000 1656.8744 2354.8633 3214.8765 0.0000 -176272.9156 20265.5192 130.4655 0.0000 30849.4870 -117800.8298 299.9405 -148650.3168 -117762.0921 299.1004 2.3624 9.3271 498939.7932 6.0233 5.7959
ENERGY: 45000 1618.4857 2415.5837 3183.3222 0.0000 -176146.7636 20263.6542 133.2631 0.0000 31013.8103 -117518.6445 301.5381 -148532.4547 -117484.8411 299.2548 150.7089 89.7571 497902.1637 -1.4045 -1.5605
TCL: Setting parameter constraintScaling to 0.01953125
TCL: Running for 5000 steps
ETITLE: TS BOND ANGLE DIHED IMPRP ELECT VDW BOUNDARY MISC KINETIC TOTAL TEMP POTENTIAL TOTAL3 TEMPAVG PRESSURE GPRESSURE VOLUME PRESSAVG GPRESSAVG
ENERGY: 45000 1618.4857 2415.5837 3183.3222 0.0000 -176146.7636 20263.6542 66.6316 0.0000 31011.7595 -117587.3268 301.5182 -148599.0863 -117543.5510 301.5182 136.3265 73.7649 497902.1637 136.3265 73.7649
ENERGY: 46000 1585.8674 2423.7583 3190.1885 0.0000 -175736.8007 20020.7619 78.1878 0.0000 30826.1300 -117611.9068 299.7134 -148438.0367 -117573.5127 299.2120 7.7047 54.1210 497481.6622 -12.4898 -12.9837
ENERGY: 47000 1592.6526 2403.4672 3185.3514 0.0000 -175856.0040 20069.7612 83.0014 0.0000 31051.6758 -117470.0944 301.9063 -148521.7702 -117419.1994 300.5359 -81.5927 0.7985 497557.3991 -2.9671 -3.0706
ENERGY: 48000 1737.2025 2469.0706 3189.5124 0.0000 -175615.7500 19928.1527 89.2405 0.0000 30829.2885 -117373.2827 299.7441 -148202.5712 -117334.3160 300.6375 95.9581 75.1081 496392.2724 -18.1991 -18.1450
ENERGY: 49000 1590.9050 2384.1167 3191.4319 0.0000 -175916.9074 19885.1387 94.5543 0.0000 30896.6088 -117874.1521 300.3986 -148770.7608 -117825.5365 298.7589 -29.4628 -27.3411 495777.1213 -3.2665 -3.1303
ENERGY: 50000 1666.1343 2361.8519 3192.2046 0.0000 -175930.1645 20096.2171 101.1897 0.0000 30916.0677 -117596.4991 300.5878 -148512.5668 -117545.6163 299.6551 77.8902 96.6702 496442.8153 16.6043 16.1910
TCL: Setting parameter constraintScaling to 0
TCL: Running for 5000 steps
ETITLE: TS BOND ANGLE DIHED IMPRP ELECT VDW BOUNDARY MISC KINETIC TOTAL TEMP POTENTIAL TOTAL3 TEMPAVG PRESSURE GPRESSURE VOLUME PRESSAVG GPRESSAVG
ENERGY: 50000 1666.1343 2361.8519 3192.2046 0.0000 -175930.1645 20096.2171 0.0000 0.0000 30913.9879 -117699.7686 300.5676 -148613.7566 -117658.1206 300.5676 56.1570 82.8451 496442.8153 56.1570 82.8451
ENERGY: 51000 1596.9121 2419.4261 3211.9908 0.0000 -176005.8324 20012.0758 0.0000 0.0000 31044.1758 -117721.2518 301.8334 -148765.4276 -117681.2287 299.7131 25.1632 14.1572 497333.0603 14.5825 14.5861
ENERGY: 52000 1633.4396 2434.7738 3181.2998 0.0000 -175886.7865 20135.4463 0.0000 0.0000 30738.8472 -117762.9798 298.8647 -148501.8270 -117713.2773 300.6087 43.2008 59.4454 496810.6964 13.7210 14.1694
ENERGY: 53000 1617.8733 2435.0384 3193.9676 0.0000 -175805.3774 20024.7562 0.0000 0.0000 30672.3729 -117861.3691 298.2184 -148533.7420 -117810.0326 299.1375 -48.1412 -12.3920 496274.0265 -9.2803 -9.5166
ENERGY: 54000 1556.8533 2374.0795 3255.0736 0.0000 -175628.0347 19926.1045 0.0000 0.0000 30879.2686 -117636.6552 300.2300 -148515.9238 -117577.3146 299.8277 25.8874 14.5837 497655.5070 1.9663 1.4120
ENERGY: 55000 1658.8575 2459.7637 3204.3683 0.0000 -175517.5640 19752.4067 0.0000 0.0000 30875.4794 -117566.6884 300.1932 -148442.1678 -117518.1110 300.1119 -188.4493 -120.5994 496896.9730 -4.2846 -3.7989
