Info: SIMULATION PARAMETERS:
Info: TIMESTEP               1
Info: NUMBER OF STEPS        0
Info: STEPS PER CYCLE        10
Info: PERIODIC CELL BASIS 1  72.449 0 0
Info: PERIODIC CELL BASIS 2  0 93.247 0
Info: PERIODIC CELL BASIS 3  0 0 79.185
Info: PERIODIC CELL CENTER   -0.248 -0.156 -0.047
Info: WRAPPING WATERS AROUND PERIODIC BOUNDARIES ON OUTPUT.
Info: WRAPPING ALL CLUSTERS AROUND PERIODIC BOUNDARIES ON OUTPUT.
Info: FIRST LDB TIMESTEP     50
Info: LAST LDB TIMESTEP     -1
Info: HOM BACKGROUND SCALING 1
Info: PME BACKGROUND SCALING 1
Info: MIN ATOMS PER PATCH    40
Info: VELOCITY FILE          ../replicas/rep3/equilibration/eq1.vel
Info: CENTER OF MASS MOVING INITIALLY? NO
Info: DIELECTRIC             1
Info: EXCLUDE                SCALED ONE-FOUR
Info: 1-4 ELECTROSTATICS SCALED BY 0.833333
Info: MODIFIED 1-4 VDW PARAMETERS WILL BE USED
Info: DCD FILENAME           ../replicas/rep3/equilibration/eq2.dcd
Info: DCD FREQUENCY          5000
Info: DCD FIRST STEP         5000
Info: DCD FILE WILL CONTAIN UNIT CELL DATA
Info: XST FILENAME           ../replicas/rep3/equilibration/eq2.xst
Info: XST FREQUENCY          5000
Info: NO VELOCITY DCD OUTPUT
Info: NO FORCE DCD OUTPUT
Info: OUTPUT FILENAME        ../replicas/rep3/equilibration/eq2
Info: RESTART FILENAME       ../replicas/rep3/equilibration/eq2.restart
Info: RESTART FREQUENCY      5000
Info: BINARY RESTART FILES WILL BE USED
Info: SWITCHING ACTIVE
Info: SWITCHING ON           10
Info: SWITCHING OFF          12
Info: PAIRLIST DISTANCE      13.5
Info: PAIRLIST SHRINK RATE   0.01
Info: PAIRLIST GROW RATE     0.01
Info: PAIRLIST TRIGGER       0.3
Info: PAIRLISTS PER CYCLE    2
Info: PAIRLISTS ENABLED
Info: MARGIN                 0.48
Info: HYDROGEN GROUP CUTOFF  2.5
Info: PATCH DIMENSION        16.48
Info: ENERGY OUTPUT STEPS    500
Info: CROSSTERM ENERGY INCLUDED IN DIHEDRAL
Info: TIMING OUTPUT STEPS    5000
Info: PRESSURE OUTPUT STEPS  500
Info: HARMONIC CONSTRAINTS ACTIVE
Info: HARMONIC CONS EXP      2
Info: HARMONIC CONS SCALING  10
Info: LANGEVIN DYNAMICS ACTIVE
Info: LANGEVIN TEMPERATURE   300
Info: LANGEVIN USING BBK INTEGRATOR
Info: LANGEVIN DAMPING COEFFICIENT IS 5 INVERSE PS
Info: LANGEVIN DYNAMICS NOT APPLIED TO HYDROGENS
Info: BERENDSEN PRESSURE COUPLING ACTIVE
Info:     TARGET PRESSURE IS 1 BAR
Info:     COMPRESSIBILITY ESTIMATE IS 4.57e-05 BAR^(-1)
Info:     RELAXATION TIME IS 100 FS
Info:     APPLIED EVERY 2 STEPS
Info:     PRESSURE CONTROL IS GROUP-BASED
Info:       CELL FLUCTUATION IS ISOTROPIC
Info: PARTICLE MESH EWALD (PME) ACTIVE
Info: PME TOLERANCE               1e-06
Info: PME EWALD COEFFICIENT       0.257952
Info: PME INTERPOLATION ORDER     4
Info: PME GRID DIMENSIONS         80 96 80
Info: PME MAXIMUM GRID SPACING    1
Info: FULL ELECTROSTATIC EVALUATION FREQUENCY      2
Info: USING VERLET I (r-RESPA) MTS SCHEME.
Info: C1 SPLITTING OF LONG RANGE ELECTROSTATICS
Info: PLACING ATOMS IN PATCHES BY HYDROGEN GROUPS
Info: RIGID BONDS TO HYDROGEN : WATER
Info:         ERROR TOLERANCE : 1e-05
Info:          MAX ITERATIONS : 100
Info: RIGID WATER USING SETTLE ALGORITHM
Info: RANDOM NUMBER SEED     1503707992
Info: USE HYDROGEN BONDS?    NO
Info: Using AMBER format force field!
Info: AMBER PARM FILE        ../build/complex.top
Info: COORDINATE PDB         ../replicas/rep3/equilibration/eq1.coor
Info: Exclusions in PARM file will be ignored!
Info: SCNB (VDW SCALING)     2
Info: USING ARITHMETIC MEAN TO COMBINE L-J SIGMA PARAMETERS
Info: SUMMARY OF PARAMETERS:
Info: 71 BONDS
Info: 145 ANGLES
Info: 76 DIHEDRAL
Info: 0 IMPROPER
Info: 0 CROSSTERM
Info: 0 VDW
Info: 190 VDW_PAIRS
Info: 0 NBTHOLE_PAIRS
Info: STRUCTURE SUMMARY:
Info: 49394 ATOMS
Info: 49448 BONDS
Info: 8698 ANGLES
Info: 18780 DIHEDRALS
Info: 0 IMPROPERS
Info: 0 CROSSTERMS
Info: 0 EXCLUSIONS
Info: 2336 CONSTRAINTS
Info: 44667 RIGID BONDS
Info: 103515 DEGREES OF FREEDOM
Info: 17225 HYDROGEN GROUPS
Info: 4 ATOMS IN LARGEST HYDROGEN GROUP
Info: 17225 MIGRATION GROUPS
Info: 4 ATOMS IN LARGEST MIGRATION GROUP
Info: TOTAL MASS = 301478 amu
Info: TOTAL CHARGE = 1.00115e-05 e
Info: MASS DENSITY = 0.935846 g/cm^3
Info: ATOM DENSITY = 0.0923345 atoms/A^3
Info: ADDED 70656 IMPLICIT EXCLUSIONS
Info: NONBONDED TABLE R-SQUARED SPACING: 0.0625
Info: NONBONDED TABLE SIZE: 769 POINTS
Info: REMOVING COM VELOCITY -0.0104356 0.0032689 0.0112765
TCL: Running for 5000 steps
ETITLE: TS BOND ANGLE DIHED IMPRP ELECT VDW BOUNDARY MISC KINETIC TOTAL TEMP POTENTIAL TOTAL3 TEMPAVG PRESSURE GPRESSURE VOLUME PRESSAVG GPRESSAVG
ENERGY: 0 400.3759 1217.0768 2914.3189 0.0000 -212943.4168 29667.1731 0.0000 0.0000 10110.5455 -168633.9268 98.3018 -178744.4723 -168624.2398 98.3018 -2350.6648 -2450.5477 534946.2959 -2350.6648 -2450.5477
ENERGY: 1000 1252.1098 1960.3935 3114.8309 0.0000 -193301.9187 26175.2111 765.5878 0.0000 24125.0655 -135908.7202 234.5609 -160033.7856 -135878.2142 219.3607 -82.4867 -25.6208 522854.7633 0.1387 0.1821
ENERGY: 2000 1383.9517 2194.4122 3114.4199 0.0000 -184107.0796 23470.4587 803.4575 0.0000 28075.3463 -125065.0333 272.9683 -153140.3796 -125021.8001 265.5703 53.5980 -8.8459 515856.3008 -22.2086 -22.5520
ENERGY: 3000 1522.7228 2188.8463 3145.8913 0.0000 -178973.4566 21405.0245 809.3757 0.0000 29587.9292 -120313.6668 287.6747 -149901.5961 -120273.8739 285.5328 -42.4024 -7.7650 511165.6096 -14.7301 -14.7127
ENERGY: 4000 1563.5177 2259.0621 3119.8346 0.0000 -177020.7572 20817.1431 841.0013 0.0000 30259.1527 -118161.0457 294.2008 -148420.1984 -118117.6698 292.1553 -43.7419 -23.9140 508068.7117 -8.0101 -8.7430
ENERGY: 5000 1543.8125 2269.6566 3155.4510 0.0000 -175874.4723 20379.3208 799.2077 0.0000 30670.5229 -117056.5009 298.2004 -147727.0237 -117014.6412 296.2165 -36.1405 -31.4884 505209.1244 -11.1704 -10.7117
TCL: Setting parameter constraintScaling to 5.0
TCL: Running for 5000 steps
ETITLE: TS BOND ANGLE DIHED IMPRP ELECT VDW BOUNDARY MISC KINETIC TOTAL TEMP POTENTIAL TOTAL3 TEMPAVG PRESSURE GPRESSURE VOLUME PRESSAVG GPRESSAVG
ENERGY: 5000 1543.8125 2269.6566 3155.4510 0.0000 -175874.4723 20379.3208 399.6039 0.0000 30668.4549 -117458.1727 298.1803 -148126.6276 -117414.2736 298.1803 -111.1080 -103.9582 505209.1244 -111.1080 -103.9582
ENERGY: 6000 1550.0507 2301.1150 3149.2581 0.0000 -176101.2326 20553.5976 641.7815 0.0000 30504.5104 -117400.9192 296.5863 -147905.4297 -117364.9893 297.2779 12.8376 30.9664 501763.3402 -18.0122 -18.4267
ENERGY: 7000 1575.7639 2287.5553 3156.8406 0.0000 -175643.2826 20262.6359 626.8493 0.0000 30784.0559 -116949.5818 299.3043 -147733.6376 -116898.0123 299.3979 -2.6793 10.1994 501862.4641 1.7534 1.9325
ENERGY: 8000 1537.4717 2320.5379 3143.1583 0.0000 -175550.8498 20026.0404 634.9883 0.0000 30721.2760 -117167.3772 298.6939 -147888.6532 -117140.6048 298.9175 77.7761 25.6735 501692.8320 -4.4492 -4.9738
ENERGY: 9000 1611.7509 2330.6437 3140.9984 0.0000 -175584.0782 20126.3513 623.1346 0.0000 30840.0762 -116911.1231 299.8490 -147751.1992 -116873.6676 299.4339 -86.4613 -40.5327 502458.0510 14.5968 14.1728
ENERGY: 10000 1579.1162 2293.5718 3172.8891 0.0000 -175651.7095 20067.7212 679.4408 0.0000 30801.3017 -117057.6688 299.4720 -147858.9705 -117017.4534 299.0945 10.0975 27.4225 503576.7725 4.8174 4.7604
TCL: Setting parameter constraintScaling to 2.5
TCL: Running for 5000 steps
ETITLE: TS BOND ANGLE DIHED IMPRP ELECT VDW BOUNDARY MISC KINETIC TOTAL TEMP POTENTIAL TOTAL3 TEMPAVG PRESSURE GPRESSURE VOLUME PRESSAVG GPRESSAVG
ENERGY: 10000 1579.1162 2293.5718 3172.8891 0.0000 -175651.7094 20067.7212 339.7204 0.0000 30799.2904 -117399.4005 299.4524 -148198.6909 -117352.7994 299.4524 -77.1272 -54.0538 503576.7725 -77.1272 -54.0538
ENERGY: 11000 1663.1081 2385.2205 3163.9735 0.0000 -175660.0693 20247.5890 515.2365 0.0000 30957.7832 -116727.1585 300.9934 -147684.9417 -116679.0966 300.6241 -119.0756 -43.0439 500617.8251 -11.6447 -11.7344
ENERGY: 12000 1607.1272 2313.4873 3181.2333 0.0000 -175790.2866 20370.1394 517.2760 0.0000 30906.3911 -116894.6322 300.4937 -147801.0234 -116846.7469 300.6128 -34.0310 11.9593 500407.4378 -4.9554 -4.2882
ENERGY: 13000 1572.6025 2361.5011 3174.4622 0.0000 -175675.6345 20252.5202 529.4168 0.0000 31167.7879 -116617.3437 303.0352 -147785.1316 -116565.3996 300.0158 -31.2907 14.5244 500403.1204 1.4185 1.5650
ENERGY: 14000 1581.1949 2362.4257 3156.2699 0.0000 -175835.1615 20382.1781 491.4232 0.0000 31015.2661 -116846.4036 301.5523 -147861.6697 -116809.2599 300.5477 -17.1431 -47.8659 499471.8966 -4.9193 -5.4133
ENERGY: 15000 1599.7152 2300.4575 3172.6262 0.0000 -175681.4410 20049.0720 518.3031 0.0000 30938.2211 -117103.0459 300.8032 -148041.2670 -117063.0571 300.3877 48.8871 14.1510 498860.6004 -6.8703 -6.7149
TCL: Setting parameter constraintScaling to 1.25
TCL: Running for 5000 steps
ETITLE: TS BOND ANGLE DIHED IMPRP ELECT VDW BOUNDARY MISC KINETIC TOTAL TEMP POTENTIAL TOTAL3 TEMPAVG PRESSURE GPRESSURE VOLUME PRESSAVG GPRESSAVG
ENERGY: 15000 1599.7152 2300.4575 3172.6262 0.0000 -175681.4410 20049.0720 259.1516 0.0000 30936.1795 -117364.2391 300.7833 -148300.4185 -117319.4645 300.7833 34.6533 5.9573 498860.6004 34.6533 5.9573
ENERGY: 16000 1596.1379 2421.9083 3195.8071 0.0000 -175870.4637 20267.7893 403.4753 0.0000 30576.8741 -117408.4717 297.2899 -147985.3458 -117349.1326 299.3637 -81.8956 -27.2061 499526.2993 -2.8597 -3.3625
ENERGY: 17000 1641.4187 2336.3495 3195.9625 0.0000 -176076.1441 20178.0539 393.3940 0.0000 30825.1976 -117505.7679 299.7043 -148330.9655 -117472.4114 298.1861 -46.7073 32.4727 499103.7111 3.2839 3.3343
ENERGY: 18000 1625.2335 2352.8076 3241.7776 0.0000 -175466.9198 19902.7464 397.3996 0.0000 31056.0101 -116890.9450 301.9484 -147946.9551 -116846.4095 300.5270 -98.0838 -66.8421 498276.3674 -5.8387 -5.6743
ENERGY: 19000 1580.0995 2367.9807 3213.0761 0.0000 -175337.5865 19955.1119 402.9583 0.0000 30966.9536 -116851.4064 301.0825 -147818.3599 -116804.5712 300.2184 -2.1773 -20.7740 499098.1856 3.7970 4.4066
ENERGY: 20000 1651.0923 2414.9635 3171.1902 0.0000 -175711.6554 20149.9661 397.7967 0.0000 30764.5529 -117162.0937 299.1147 -147926.6466 -117119.7216 300.4415 45.3427 30.9899 500569.0807 13.4632 13.1513
TCL: Setting parameter constraintScaling to 0.625
TCL: Running for 5000 steps
ETITLE: TS BOND ANGLE DIHED IMPRP ELECT VDW BOUNDARY MISC KINETIC TOTAL TEMP POTENTIAL TOTAL3 TEMPAVG PRESSURE GPRESSURE VOLUME PRESSAVG GPRESSAVG
ENERGY: 20000 1651.0923 2414.9635 3171.1902 0.0000 -175711.6554 20149.9661 198.8983 0.0000 30762.5187 -117363.0262 299.0949 -148125.5449 -117322.5715 299.0949 -4.8690 -24.8313 500569.0807 -4.8690 -24.8313
ENERGY: 21000 1609.0409 2363.1912 3222.9833 0.0000 -175839.8832 20057.1703 313.4193 0.0000 30813.6801 -117460.3980 299.5923 -148274.0781 -117418.5470 299.7477 88.6218 82.6373 499715.3233 7.2428 6.8651
ENERGY: 22000 1591.7799 2389.2378 3233.7789 0.0000 -175733.1895 20078.4437 326.7549 0.0000 30708.3895 -117404.8048 298.5686 -148113.1943 -117364.2069 298.7863 -9.0811 14.9490 499385.3343 3.3608 3.4462
ENERGY: 23000 1689.8395 2397.6660 3196.4800 0.0000 -176222.8870 20359.3339 324.0271 0.0000 30881.0695 -117374.4709 300.2475 -148255.5405 -117322.2404 298.9227 -9.3534 53.3782 498581.5740 0.7002 0.5404
ENERGY: 24000 1605.6385 2392.3400 3215.5433 0.0000 -176516.4785 20340.3494 310.2816 0.0000 30694.7589 -117957.5667 298.4361 -148652.3256 -117904.1827 298.3460 13.6606 57.5270 498479.9782 4.6034 4.5547
ENERGY: 25000 1628.1831 2356.2516 3183.8274 0.0000 -176162.6231 20135.1347 300.2739 0.0000 30833.8166 -117725.1359 299.7881 -148558.9525 -117675.6762 298.6891 -51.5774 -39.2136 499265.5298 6.3839 6.4545
TCL: Setting parameter constraintScaling to 0.3125
TCL: Running for 5000 steps
ETITLE: TS BOND ANGLE DIHED IMPRP ELECT VDW BOUNDARY MISC KINETIC TOTAL TEMP POTENTIAL TOTAL3 TEMPAVG PRESSURE GPRESSURE VOLUME PRESSAVG GPRESSAVG
ENERGY: 25000 1628.1831 2356.2516 3183.8274 0.0000 -176162.6231 20135.1347 150.1369 0.0000 30831.8039 -117877.2855 299.7685 -148709.0894 -117832.2595 299.7685 -134.6346 -111.5629 499265.5298 -134.6346 -111.5629
ENERGY: 26000 1661.9718 2418.6747 3207.0877 0.0000 -175787.6848 20033.2260 253.4162 0.0000 30605.3058 -117608.0027 297.5664 -148213.3085 -117565.7422 298.7793 -18.7978 21.9634 497382.4358 -4.5965 -4.4931
ENERGY: 27000 1632.6859 2405.2780 3202.7170 0.0000 -175844.3818 20117.4369 255.2098 0.0000 30813.7376 -117417.3165 299.5929 -148231.0541 -117374.2188 299.4699 -62.4908 -39.7356 497390.4806 6.7775 6.5507
ENERGY: 28000 1663.0709 2371.1147 3229.4706 0.0000 -176472.2297 20506.0304 263.2098 0.0000 30518.4519 -117920.8815 296.7219 -148439.3334 -117879.3872 298.8884 -17.9671 89.0114 496942.6801 0.1017 0.6727
ENERGY: 29000 1653.6962 2390.9230 3216.1468 0.0000 -175630.7155 19922.5546 243.9058 0.0000 30896.3430 -117307.1462 300.3960 -148203.4892 -117263.6475 299.9813 16.3596 16.7607 498537.3285 6.7952 6.7621
ENERGY: 30000 1589.6768 2469.7104 3240.1717 0.0000 -175833.3003 19955.6255 258.7744 0.0000 30766.6913 -117552.6502 299.1355 -148319.3415 -117505.4549 299.5420 -105.0323 -66.7308 497493.2234 -11.7480 -12.0507
TCL: Setting parameter constraintScaling to 0.15625
TCL: Running for 5000 steps
ETITLE: TS BOND ANGLE DIHED IMPRP ELECT VDW BOUNDARY MISC KINETIC TOTAL TEMP POTENTIAL TOTAL3 TEMPAVG PRESSURE GPRESSURE VOLUME PRESSAVG GPRESSAVG
ENERGY: 30000 1589.6768 2469.7104 3240.1717 0.0000 -175833.3003 19955.6255 129.3872 0.0000 30764.6400 -117684.0887 299.1155 -148448.7287 -117640.9721 299.1155 -157.0489 -112.3612 497493.2234 -157.0489 -112.3612
ENERGY: 31000 1645.1028 2359.8920 3192.4707 0.0000 -175890.6877 20199.6924 195.7497 0.0000 30641.8449 -117655.9351 297.9216 -148297.7800 -117622.0447 299.9001 40.3748 47.9049 496914.4251 0.1057 -0.1647
ENERGY: 32000 1621.5821 2399.8784 3218.0415 0.0000 -176102.3818 20223.4041 194.4276 0.0000 31017.3446 -117427.7035 301.5725 -148445.0480 -117382.7797 300.0295 -82.6918 -71.9170 497620.2207 2.5026 2.6495
ENERGY: 33000 1642.8099 2404.4134 3212.2834 0.0000 -175684.6771 20232.1192 203.8111 0.0000 30641.3200 -117347.9201 297.9165 -147989.2402 -117301.9453 300.6185 14.2671 84.5197 497970.4230 4.9761 4.4267
ENERGY: 34000 1606.2553 2400.5247 3197.7604 0.0000 -175992.3868 20076.9088 213.8505 0.0000 31076.9222 -117420.1650 302.1517 -148497.0871 -117385.4208 300.2239 14.7033 3.9040 497348.1127 1.8697 2.1846
ENERGY: 35000 1661.6994 2391.7801 3208.3702 0.0000 -175792.3202 20009.0712 197.5565 0.0000 30851.8263 -117472.0165 299.9632 -148323.8428 -117428.0143 299.5380 -83.9269 -79.3074 497292.7369 2.0852 2.3435
TCL: Setting parameter constraintScaling to 0.078125
TCL: Running for 5000 steps
ETITLE: TS BOND ANGLE DIHED IMPRP ELECT VDW BOUNDARY MISC KINETIC TOTAL TEMP POTENTIAL TOTAL3 TEMPAVG PRESSURE GPRESSURE VOLUME PRESSAVG GPRESSAVG
ENERGY: 35000 1661.6994 2391.7801 3208.3702 0.0000 -175792.3202 20009.0712 98.7783 0.0000 30849.8075 -117572.8135 299.9436 -148422.6210 -117528.7303 299.9436 -110.9580 -98.9367 497292.7369 -110.9580 -98.9367
ENERGY: 36000 1661.3006 2374.5741 3238.3318 0.0000 -175747.6110 19966.8562 140.4067 0.0000 30891.4476 -117474.6941 300.3484 -148366.1417 -117443.2597 301.3068 -36.3257 52.6919 496629.1897 3.8687 4.0286
ENERGY: 37000 1617.6834 2440.5042 3222.9537 0.0000 -175739.9109 20039.9442 154.4859 0.0000 30603.8812 -117660.4582 297.5525 -148264.3395 -117616.2468 299.7441 -41.5786 7.2967 497238.3651 7.9955 7.4343
ENERGY: 38000 1590.4713 2441.6382 3199.0907 0.0000 -175948.2755 19969.4470 153.8773 0.0000 30932.7789 -117660.9721 300.7503 -148593.7510 -117604.0155 299.3707 -18.1964 10.0394 495739.6104 -2.8318 -2.2596
ENERGY: 39000 1621.2341 2401.1592 3242.1937 0.0000 -176162.3746 20059.5191 158.8013 0.0000 31063.7225 -117615.7447 302.0234 -148679.4672 -117577.0123 300.3724 79.1133 51.2307 495343.1624 -9.0352 -9.2281
ENERGY: 40000 1684.4982 2418.1108 3195.5039 0.0000 -176375.4072 20193.5416 147.5882 0.0000 30682.7897 -118053.3747 298.3197 -148736.1644 -118006.6234 299.8657 -88.5182 -48.8634 494845.4156 4.2104 4.3251
TCL: Setting parameter constraintScaling to 0.0390625
TCL: Running for 5000 steps
ETITLE: TS BOND ANGLE DIHED IMPRP ELECT VDW BOUNDARY MISC KINETIC TOTAL TEMP POTENTIAL TOTAL3 TEMPAVG PRESSURE GPRESSURE VOLUME PRESSAVG GPRESSAVG
ENERGY: 40000 1684.4982 2418.1108 3195.5039 0.0000 -176375.4072 20193.5416 73.7941 0.0000 30680.7314 -118129.2272 298.2997 -148809.9586 -118086.3049 298.2997 -89.9339 -55.0381 494845.4156 -89.9339 -55.0381
ENERGY: 41000 1589.1169 2397.7997 3246.4096 0.0000 -175844.5584 20150.4642 104.0093 0.0000 30610.1715 -117746.5872 297.6137 -148356.7587 -117705.6039 299.2937 116.0714 77.9978 495990.2008 7.8721 8.4407
ENERGY: 42000 1658.5890 2435.8601 3197.6237 0.0000 -175580.5750 19980.5915 115.1768 0.0000 30816.6547 -117376.0793 299.6212 -148192.7339 -117338.0467 300.2393 -94.9504 -81.8232 497672.4347 5.9737 5.6373
ENERGY: 43000 1675.1474 2415.1275 3220.6969 0.0000 -175588.7833 19818.2933 121.9866 0.0000 30883.1530 -117454.3787 300.2678 -148337.5316 -117404.4921 300.2969 -78.0658 -57.2357 495141.4267 -16.7368 -16.8913
ENERGY: 44000 1589.5303 2415.8813 3201.3055 0.0000 -175894.8965 20048.1466 114.5952 0.0000 30659.7145 -117865.7233 298.0954 -148525.4377 -117826.5025 300.3076 47.4369 85.7230 496077.2985 21.2857 21.7871
ENERGY: 45000 1642.6960 2415.2618 3178.8747 0.0000 -175786.9687 19914.9055 122.4028 0.0000 30905.4993 -117607.3286 300.4850 -148512.8278 -117571.6338 300.3251 18.4122 -9.3017 495140.5205 -4.1886 -4.1100
TCL: Setting parameter constraintScaling to 0.01953125
TCL: Running for 5000 steps
ETITLE: TS BOND ANGLE DIHED IMPRP ELECT VDW BOUNDARY MISC KINETIC TOTAL TEMP POTENTIAL TOTAL3 TEMPAVG PRESSURE GPRESSURE VOLUME PRESSAVG GPRESSAVG
ENERGY: 45000 1642.6960 2415.2618 3178.8747 0.0000 -175786.9687 19914.9055 61.2014 0.0000 30903.4587 -117670.5705 300.4652 -148574.0293 -117624.4082 300.4652 14.0254 -22.4265 495140.5205 14.0254 -22.4265
ENERGY: 46000 1615.0490 2405.2925 3270.3414 0.0000 -175995.8099 19850.6082 82.3409 0.0000 30855.0936 -117917.0843 299.9950 -148772.1779 -117879.7815 299.2489 -56.2701 11.6219 493742.8939 -12.0038 -11.9762
ENERGY: 47000 1666.3031 2359.2937 3181.8457 0.0000 -176040.9332 20033.2459 82.9964 0.0000 30853.7994 -117863.4488 299.9824 -148717.2483 -117824.2957 299.5186 -129.9862 -69.4321 496904.8969 9.4724 9.6105
ENERGY: 48000 1683.7961 2383.5896 3228.2886 0.0000 -175765.7463 19978.5012 81.3659 0.0000 30946.5768 -117463.6283 300.8844 -148410.2051 -117428.3970 300.3534 -74.0054 -31.8246 496817.6871 7.3163 7.5110
ENERGY: 49000 1610.1134 2471.6138 3210.3711 0.0000 -176106.7947 20243.3082 82.4683 0.0000 30734.7286 -117754.1914 298.8247 -148488.9200 -117702.6983 299.8934 123.2762 99.3704 497683.1636 3.8323 4.0596
ENERGY: 50000 1683.1451 2382.9352 3216.0902 0.0000 -175484.4633 19766.0177 94.5731 0.0000 30879.7398 -117461.9623 300.2346 -148341.7021 -117419.6826 300.0197 -144.5134 -65.5666 495802.9789 -12.0909 -11.7574
TCL: Setting parameter constraintScaling to 0
TCL: Running for 5000 steps
ETITLE: TS BOND ANGLE DIHED IMPRP ELECT VDW BOUNDARY MISC KINETIC TOTAL TEMP POTENTIAL TOTAL3 TEMPAVG PRESSURE GPRESSURE VOLUME PRESSAVG GPRESSAVG
ENERGY: 50000 1683.1451 2382.9352 3216.0902 0.0000 -175484.4633 19766.0177 0.0000 0.0000 30877.6854 -117558.5897 300.2146 -148436.2751 -117513.6781 300.2146 -174.0528 -90.9728 495802.9789 -174.0528 -90.9728
ENERGY: 51000 1627.1241 2443.3561 3229.7188 0.0000 -175781.8923 19970.0881 0.0000 0.0000 31017.7268 -117493.8785 301.5762 -148511.6053 -117450.2559 300.6848 22.6320 29.1011 496739.1973 9.7390 10.1804
ENERGY: 52000 1696.7668 2398.3192 3195.0454 0.0000 -175716.2877 19968.4954 0.0000 0.0000 30497.7396 -117959.9213 296.5205 -148457.6609 -117914.6540 299.2441 11.1825 9.2059 497201.8372 4.2565 4.3928
ENERGY: 53000 1596.5603 2442.8345 3235.5660 0.0000 -176083.1080 20086.4477 0.0000 0.0000 30872.2688 -117849.4307 300.1620 -148721.6995 -117809.9682 298.7983 -143.4286 -86.2325 497350.7473 1.2652 0.4268
ENERGY: 54000 1734.4169 2427.1373 3198.9963 0.0000 -176126.4376 19975.0989 0.0000 0.0000 30866.3679 -117924.4203 300.1046 -148790.7882 -117885.5915 299.9466 0.9729 -48.3580 497583.2042 3.1690 2.9535
ENERGY: 55000 1615.1975 2416.3655 3178.2180 0.0000 -176218.4077 20013.9367 0.0000 0.0000 30959.3202 -118035.3699 301.0083 -148994.6901 -117982.0519 298.8622 -123.6603 -5.5411 496799.4413 -7.5436 -7.9233
