Info: SIMULATION PARAMETERS:
Info: TIMESTEP               1
Info: NUMBER OF STEPS        0
Info: STEPS PER CYCLE        10
Info: PERIODIC CELL BASIS 1  72.449 0 0
Info: PERIODIC CELL BASIS 2  0 93.247 0
Info: PERIODIC CELL BASIS 3  0 0 79.185
Info: PERIODIC CELL CENTER   -0.248 -0.156 -0.047
Info: WRAPPING WATERS AROUND PERIODIC BOUNDARIES ON OUTPUT.
Info: WRAPPING ALL CLUSTERS AROUND PERIODIC BOUNDARIES ON OUTPUT.
Info: FIRST LDB TIMESTEP     50
Info: LAST LDB TIMESTEP     -1
Info: HOM BACKGROUND SCALING 1
Info: PME BACKGROUND SCALING 1
Info: MIN ATOMS PER PATCH    40
Info: VELOCITY FILE          ../replicas/rep59/equilibration/eq1.vel
Info: CENTER OF MASS MOVING INITIALLY? NO
Info: DIELECTRIC             1
Info: EXCLUDE                SCALED ONE-FOUR
Info: 1-4 ELECTROSTATICS SCALED BY 0.833333
Info: MODIFIED 1-4 VDW PARAMETERS WILL BE USED
Info: DCD FILENAME           ../replicas/rep59/equilibration/eq2.dcd
Info: DCD FREQUENCY          5000
Info: DCD FIRST STEP         5000
Info: DCD FILE WILL CONTAIN UNIT CELL DATA
Info: XST FILENAME           ../replicas/rep59/equilibration/eq2.xst
Info: XST FREQUENCY          5000
Info: NO VELOCITY DCD OUTPUT
Info: NO FORCE DCD OUTPUT
Info: OUTPUT FILENAME        ../replicas/rep59/equilibration/eq2
Info: RESTART FILENAME       ../replicas/rep59/equilibration/eq2.restart
Info: RESTART FREQUENCY      5000
Info: BINARY RESTART FILES WILL BE USED
Info: SWITCHING ACTIVE
Info: SWITCHING ON           10
Info: SWITCHING OFF          12
Info: PAIRLIST DISTANCE      13.5
Info: PAIRLIST SHRINK RATE   0.01
Info: PAIRLIST GROW RATE     0.01
Info: PAIRLIST TRIGGER       0.3
Info: PAIRLISTS PER CYCLE    2
Info: PAIRLISTS ENABLED
Info: MARGIN                 0.48
Info: HYDROGEN GROUP CUTOFF  2.5
Info: PATCH DIMENSION        16.48
Info: ENERGY OUTPUT STEPS    500
Info: CROSSTERM ENERGY INCLUDED IN DIHEDRAL
Info: TIMING OUTPUT STEPS    5000
Info: PRESSURE OUTPUT STEPS  500
Info: HARMONIC CONSTRAINTS ACTIVE
Info: HARMONIC CONS EXP      2
Info: HARMONIC CONS SCALING  10
Info: LANGEVIN DYNAMICS ACTIVE
Info: LANGEVIN TEMPERATURE   300
Info: LANGEVIN USING BBK INTEGRATOR
Info: LANGEVIN DAMPING COEFFICIENT IS 5 INVERSE PS
Info: LANGEVIN DYNAMICS NOT APPLIED TO HYDROGENS
Info: BERENDSEN PRESSURE COUPLING ACTIVE
Info:     TARGET PRESSURE IS 1 BAR
Info:     COMPRESSIBILITY ESTIMATE IS 4.57e-05 BAR^(-1)
Info:     RELAXATION TIME IS 100 FS
Info:     APPLIED EVERY 2 STEPS
Info:     PRESSURE CONTROL IS GROUP-BASED
Info:       CELL FLUCTUATION IS ISOTROPIC
Info: PARTICLE MESH EWALD (PME) ACTIVE
Info: PME TOLERANCE               1e-06
Info: PME EWALD COEFFICIENT       0.257952
Info: PME INTERPOLATION ORDER     4
Info: PME GRID DIMENSIONS         80 96 80
Info: PME MAXIMUM GRID SPACING    1
Info: FULL ELECTROSTATIC EVALUATION FREQUENCY      2
Info: USING VERLET I (r-RESPA) MTS SCHEME.
Info: C1 SPLITTING OF LONG RANGE ELECTROSTATICS
Info: PLACING ATOMS IN PATCHES BY HYDROGEN GROUPS
Info: RIGID BONDS TO HYDROGEN : WATER
Info:         ERROR TOLERANCE : 1e-05
Info:          MAX ITERATIONS : 100
Info: RIGID WATER USING SETTLE ALGORITHM
Info: RANDOM NUMBER SEED     1503717703
Info: USE HYDROGEN BONDS?    NO
Info: Using AMBER format force field!
Info: AMBER PARM FILE        ../build/complex.top
Info: COORDINATE PDB         ../replicas/rep59/equilibration/eq1.coor
Info: Exclusions in PARM file will be ignored!
Info: SCNB (VDW SCALING)     2
Info: USING ARITHMETIC MEAN TO COMBINE L-J SIGMA PARAMETERS
Info: SUMMARY OF PARAMETERS:
Info: 71 BONDS
Info: 145 ANGLES
Info:   145 HARMONIC
Info:   0 COSINE-BASED
Info: 76 DIHEDRAL
Info: 0 IMPROPER
Info: 0 CROSSTERM
Info: 0 VDW
Info: 190 VDW_PAIRS
Info: 0 NBTHOLE_PAIRS
Info: STRUCTURE SUMMARY:
Info: 49394 ATOMS
Info: 49448 BONDS
Info: 8698 ANGLES
Info: 18780 DIHEDRALS
Info: 0 IMPROPERS
Info: 0 CROSSTERMS
Info: 0 EXCLUSIONS
Info: 2336 CONSTRAINTS
Info: 44667 RIGID BONDS
Info: 103515 DEGREES OF FREEDOM
Info: 17225 HYDROGEN GROUPS
Info: 4 ATOMS IN LARGEST HYDROGEN GROUP
Info: 17225 MIGRATION GROUPS
Info: 4 ATOMS IN LARGEST MIGRATION GROUP
Info: TOTAL MASS = 301478 amu
Info: TOTAL CHARGE = 1.00115e-05 e
Info: MASS DENSITY = 0.935846 g/cm^3
Info: ATOM DENSITY = 0.0923345 atoms/A^3
Info: ADDED 70656 IMPLICIT EXCLUSIONS
Info: NONBONDED TABLE R-SQUARED SPACING: 0.0625
Info: NONBONDED TABLE SIZE: 769 POINTS
Info: REMOVING COM VELOCITY 0.0353236 -0.0106989 0.00250396
TCL: Running for 5000 steps
ETITLE: TS BOND ANGLE DIHED IMPRP ELECT VDW BOUNDARY MISC KINETIC TOTAL TEMP POTENTIAL TOTAL3 TEMPAVG PRESSURE GPRESSURE VOLUME PRESSAVG GPRESSAVG
ENERGY: 0 376.4571 1200.1047 2924.8161 0.0000 -212824.9882 29542.1587 0.0000 0.0000 10038.4985 -168742.9532 97.6014 -178781.4517 -168733.4041 97.6014 -2386.0378 -2485.0804 534946.2959 -2386.0378 -2485.0804
ENERGY: 1000 1195.5295 1975.3898 3121.4634 0.0000 -193611.8352 26462.8585 751.8911 0.0000 24146.2768 -135958.4260 234.7671 -160104.7028 -135935.5062 219.0685 -97.4167 -61.5578 523244.0336 -4.8548 -5.0266
ENERGY: 2000 1439.1269 2150.7781 3128.0282 0.0000 -183843.4426 23200.5841 786.1885 0.0000 27776.4810 -125362.2559 270.0625 -153138.7368 -125321.9727 264.1559 -114.7140 -15.5638 516504.6334 -23.7689 -23.5356
ENERGY: 3000 1507.7908 2224.1032 3151.1457 0.0000 -179522.0335 21708.6568 794.0855 0.0000 29723.7948 -120412.4567 288.9957 -150136.2515 -120375.3343 284.1762 2.2061 -1.2255 510632.2165 -23.0769 -22.6788
ENERGY: 4000 1537.4387 2265.8791 3101.6157 0.0000 -177078.3883 21049.5671 801.4530 0.0000 30023.1120 -118299.3226 291.9059 -148322.4346 -118259.4737 293.2347 -57.2579 4.2698 506132.8505 -20.8939 -20.7373
ENERGY: 5000 1555.1417 2276.7638 3176.7372 0.0000 -175383.6695 19921.0961 827.3190 0.0000 30632.2611 -116994.3505 297.8284 -147626.6117 -116945.1928 297.2850 0.4179 0.3496 506198.7159 -5.2258 -5.1786
TCL: Setting parameter constraintScaling to 5.0
TCL: Running for 5000 steps
ETITLE: TS BOND ANGLE DIHED IMPRP ELECT VDW BOUNDARY MISC KINETIC TOTAL TEMP POTENTIAL TOTAL3 TEMPAVG PRESSURE GPRESSURE VOLUME PRESSAVG GPRESSAVG
ENERGY: 5000 1555.1417 2276.7638 3176.7372 0.0000 -175383.6695 19921.0961 413.6595 0.0000 30630.2137 -117410.0575 297.8085 -148040.2712 -117364.8099 297.8085 -221.5634 -219.7576 506198.7159 -221.5634 -219.7576
ENERGY: 6000 1579.8454 2280.9188 3177.4936 0.0000 -174993.3920 20134.8750 658.7558 0.0000 30901.0691 -116260.4342 300.4420 -147161.5033 -116199.5480 300.2573 14.7280 -4.9363 505543.8637 11.1960 11.2537
ENERGY: 7000 1548.5393 2274.5877 3184.8082 0.0000 -175331.3021 20065.2065 645.5934 0.0000 30885.1933 -116727.3738 300.2876 -147612.5671 -116684.3157 300.2342 -68.4822 51.0801 502242.7201 -10.0963 -9.9528
ENERGY: 8000 1607.5199 2275.2123 3123.4519 0.0000 -175712.6654 20407.5818 628.7318 0.0000 30970.3723 -116699.7953 301.1158 -147670.1677 -116656.8632 299.6236 -88.8773 -21.5725 502487.8396 -9.0055 -8.3489
ENERGY: 9000 1570.4511 2305.5019 3164.7093 0.0000 -175507.7464 20019.3840 649.9330 0.0000 30919.4907 -116878.2765 300.6211 -147797.7671 -116826.1465 299.0834 -17.8702 32.4203 502744.7910 6.9329 7.4855
ENERGY: 10000 1587.8160 2289.7078 3168.5924 0.0000 -175597.9600 20433.0689 644.3672 0.0000 30515.2880 -116959.1197 296.6911 -147474.4077 -116923.0180 299.2475 -79.2447 -0.4763 502100.7975 2.9508 3.3937
TCL: Setting parameter constraintScaling to 2.5
TCL: Running for 5000 steps
ETITLE: TS BOND ANGLE DIHED IMPRP ELECT VDW BOUNDARY MISC KINETIC TOTAL TEMP POTENTIAL TOTAL3 TEMPAVG PRESSURE GPRESSURE VOLUME PRESSAVG GPRESSAVG
ENERGY: 10000 1587.8160 2289.7078 3168.5924 0.0000 -175597.9600 20433.0689 322.1836 0.0000 30513.2096 -117283.3817 296.6709 -147796.5913 -117243.6282 296.6709 -66.8710 17.8699 502100.7975 -66.8710 17.8699
ENERGY: 11000 1595.5288 2334.2314 3159.3063 0.0000 -175871.7731 20409.3547 508.0030 0.0000 30642.0722 -117223.2767 297.9238 -147865.3489 -117174.8438 299.1669 39.1252 13.6686 499364.4247 -3.8152 -4.4076
ENERGY: 12000 1620.2646 2405.6665 3167.8082 0.0000 -175547.9767 20179.3752 518.2513 0.0000 30769.9364 -116886.6745 299.1670 -147656.6110 -116845.2594 299.6466 35.1056 -5.2767 500427.7338 -4.9605 -4.7955
ENERGY: 13000 1634.3570 2297.0635 3195.5971 0.0000 -175470.0170 20004.7619 511.3533 0.0000 30836.3260 -116990.5582 299.8125 -147826.8842 -116947.0504 299.9508 -98.9343 7.9863 501328.5408 8.4872 8.2331
ENERGY: 14000 1625.0715 2292.3223 3158.3454 0.0000 -175357.9810 19884.7960 497.7763 0.0000 31002.4917 -116897.1777 301.4281 -147899.6695 -116857.4488 299.4512 -19.5205 26.8453 499771.2870 -6.0874 -5.4542
ENERGY: 15000 1620.1550 2310.0789 3186.2134 0.0000 -175527.0780 19944.9470 510.1895 0.0000 30794.7827 -117160.7115 299.4086 -147955.4942 -117113.7381 299.2407 9.8452 54.5601 498538.7986 -8.6374 -8.7176
TCL: Setting parameter constraintScaling to 1.25
TCL: Running for 5000 steps
ETITLE: TS BOND ANGLE DIHED IMPRP ELECT VDW BOUNDARY MISC KINETIC TOTAL TEMP POTENTIAL TOTAL3 TEMPAVG PRESSURE GPRESSURE VOLUME PRESSAVG GPRESSAVG
ENERGY: 15000 1620.1550 2310.0789 3186.2134 0.0000 -175527.0780 19944.9470 255.0948 0.0000 30792.7172 -117417.8717 299.3885 -148210.5889 -117375.2171 299.3885 -46.3578 9.3535 498538.7986 -46.3578 9.3535
ENERGY: 16000 1650.7217 2405.7947 3178.3867 0.0000 -175467.0205 19881.0265 386.5153 0.0000 30599.6825 -117364.8932 297.5117 -147964.5756 -117323.5702 298.1909 -89.1991 -19.3603 498414.0865 9.3741 9.6262
ENERGY: 17000 1655.1465 2377.5078 3182.7978 0.0000 -175895.1016 20200.5280 387.7846 0.0000 30879.1680 -117212.1689 300.2290 -148091.3369 -117162.1914 299.6527 24.9562 -24.0465 499893.8709 10.4974 11.0774
ENERGY: 18000 1566.2435 2360.8074 3203.9458 0.0000 -175588.6576 19923.2255 395.3539 0.0000 30874.3348 -117264.7467 300.1820 -148139.0815 -117226.0593 299.3329 12.1414 77.3292 498535.4515 -8.9071 -8.9851
ENERGY: 19000 1641.8946 2395.5858 3227.3464 0.0000 -175602.3980 19931.4008 395.3957 0.0000 30675.1336 -117335.6412 298.2453 -148010.7748 -117279.6751 298.1638 -52.1307 77.6590 497533.6971 -3.0184 -2.7738
ENERGY: 20000 1644.6815 2437.2761 3174.9030 0.0000 -175960.7330 20198.2680 403.5794 0.0000 30774.7849 -117327.2400 299.2141 -148102.0249 -117287.0773 299.4255 89.9094 120.0103 497337.0337 -2.2315 -2.3640
TCL: Setting parameter constraintScaling to 0.625
TCL: Running for 5000 steps
ETITLE: TS BOND ANGLE DIHED IMPRP ELECT VDW BOUNDARY MISC KINETIC TOTAL TEMP POTENTIAL TOTAL3 TEMPAVG PRESSURE GPRESSURE VOLUME PRESSAVG GPRESSAVG
ENERGY: 20000 1644.6815 2437.2761 3174.9030 0.0000 -175960.7330 20198.2680 201.7897 0.0000 30772.7617 -117531.0529 299.1945 -148303.8146 -117485.5080 299.1945 67.7576 103.6434 497337.0337 67.7576 103.6434
ENERGY: 21000 1634.9849 2381.2202 3254.3833 0.0000 -175681.4651 19983.5488 304.5986 0.0000 30906.8493 -117215.8801 300.4982 -148122.7294 -117175.2232 299.7677 191.1276 127.8541 498080.6264 3.2222 3.1327
ENERGY: 22000 1619.0718 2442.7007 3205.1124 0.0000 -176018.0445 20160.2668 310.2742 0.0000 31090.7984 -117189.8203 302.2867 -148280.6187 -117148.9578 299.9196 -50.0987 21.3721 498281.3461 3.0862 3.1943
ENERGY: 23000 1619.5756 2460.4997 3211.9121 0.0000 -175980.9915 20107.6986 304.3930 0.0000 30628.7712 -117648.1413 297.7945 -148276.9125 -117604.0524 299.6191 -143.1644 -15.2154 498079.6760 7.7155 7.8832
ENERGY: 24000 1659.7865 2370.0139 3218.9504 0.0000 -176118.0383 20219.8344 337.6366 0.0000 30818.3473 -117493.4692 299.6377 -148311.8165 -117439.0498 299.5015 -32.5533 20.3158 497735.3293 6.2757 6.6131
ENERGY: 25000 1684.4770 2378.0788 3218.7011 0.0000 -175865.7832 20073.0939 325.3055 0.0000 30621.9019 -117564.2251 297.7277 -148186.1270 -117506.9966 299.8180 -113.0940 -36.4302 497791.0398 2.4459 2.5775
TCL: Setting parameter constraintScaling to 0.3125
TCL: Running for 5000 steps
ETITLE: TS BOND ANGLE DIHED IMPRP ELECT VDW BOUNDARY MISC KINETIC TOTAL TEMP POTENTIAL TOTAL3 TEMPAVG PRESSURE GPRESSURE VOLUME PRESSAVG GPRESSAVG
ENERGY: 25000 1684.4770 2378.0788 3218.7011 0.0000 -175865.7832 20073.0939 162.6527 0.0000 30619.8833 -117728.8965 297.7081 -148348.7797 -117689.0522 297.7081 -177.2214 -90.3472 497791.0398 -177.2214 -90.3472
ENERGY: 26000 1626.6173 2434.5215 3213.9757 0.0000 -176146.4434 20255.4632 247.6756 0.0000 30886.9017 -117481.2884 300.3042 -148368.1901 -117441.6183 299.7180 -35.7075 60.9048 497439.3113 4.5439 4.3446
ENERGY: 27000 1618.6587 2394.0573 3199.8615 0.0000 -175421.1625 19850.5006 256.0534 0.0000 31002.0126 -117100.0184 301.4234 -148102.0310 -117050.6370 300.6119 58.0173 21.3673 498562.8041 -0.5719 -0.4889
ENERGY: 28000 1629.2111 2408.5328 3207.8167 0.0000 -175401.7314 19957.8806 264.7854 0.0000 30851.4095 -117082.0953 299.9591 -147933.5048 -117037.7384 299.9650 -94.4040 -26.0610 499392.9470 12.8031 12.4075
ENERGY: 29000 1630.6521 2476.3315 3188.0261 0.0000 -175927.0413 20101.7374 264.0352 0.0000 31040.8415 -117225.4175 301.8009 -148266.2590 -117174.8590 300.4361 -8.7444 -13.9459 498276.0454 -6.4507 -6.3412
ENERGY: 30000 1629.1405 2468.5315 3227.6213 0.0000 -175283.5672 19790.7295 238.5287 0.0000 30899.0970 -117029.9187 300.4228 -147929.0157 -116991.9736 300.2547 16.4727 41.2206 497780.4512 7.0763 7.3777
TCL: Setting parameter constraintScaling to 0.15625
TCL: Running for 5000 steps
ETITLE: TS BOND ANGLE DIHED IMPRP ELECT VDW BOUNDARY MISC KINETIC TOTAL TEMP POTENTIAL TOTAL3 TEMPAVG PRESSURE GPRESSURE VOLUME PRESSAVG GPRESSAVG
ENERGY: 30000 1629.1405 2468.5315 3227.6213 0.0000 -175283.5672 19790.7295 119.2644 0.0000 30897.0697 -117151.2104 300.4031 -148048.2801 -117108.4575 300.4031 -44.0412 -14.9357 497780.4512 -44.0412 -14.9357
ENERGY: 31000 1616.8887 2470.0807 3201.9181 0.0000 -175598.3023 19974.7728 205.9898 0.0000 30870.6703 -117257.9819 300.1464 -148128.6522 -117212.5463 301.0200 -37.3573 1.2239 497219.1368 -1.7864 -2.2573
ENERGY: 32000 1669.8843 2323.5951 3232.3877 0.0000 -175616.2486 20149.4366 213.8084 0.0000 30906.7252 -117120.4112 300.4970 -148027.1364 -117063.9474 300.5620 -67.5259 -24.9906 497406.4521 -1.6789 -1.3869
ENERGY: 33000 1619.0287 2457.5162 3237.1692 0.0000 -175331.9649 19730.4950 216.7784 0.0000 30836.3411 -117234.6363 299.8126 -148070.9774 -117188.7193 300.2282 -110.4298 -111.4355 497317.9370 -1.6730 -1.8354
ENERGY: 34000 1623.0766 2419.0324 3234.8709 0.0000 -175621.8440 20009.1054 202.8943 0.0000 30844.8085 -117288.0559 299.8950 -148132.8644 -117235.4247 300.8645 -10.7739 -21.9907 498258.9577 7.3416 7.6526
ENERGY: 35000 1623.4681 2363.8083 3199.4564 0.0000 -174697.8968 19509.3163 209.2686 0.0000 30649.7177 -117142.8612 297.9982 -147792.5789 -117098.9997 299.5226 14.2819 18.9494 498270.3923 11.0380 10.2820
TCL: Setting parameter constraintScaling to 0.078125
TCL: Running for 5000 steps
ETITLE: TS BOND ANGLE DIHED IMPRP ELECT VDW BOUNDARY MISC KINETIC TOTAL TEMP POTENTIAL TOTAL3 TEMPAVG PRESSURE GPRESSURE VOLUME PRESSAVG GPRESSAVG
ENERGY: 35000 1623.4681 2363.8083 3199.4564 0.0000 -174697.8968 19509.3163 104.6343 0.0000 30647.6387 -117249.5746 297.9779 -147897.2133 -117206.7789 297.9779 -36.0761 -39.8207 498270.3923 -36.0761 -39.8207
ENERGY: 36000 1612.9277 2390.2051 3204.9855 0.0000 -175593.3214 19857.7767 168.7140 0.0000 30843.0444 -117515.6679 299.8778 -148358.7123 -117461.6935 300.7145 -104.9521 -16.4267 498092.6137 -1.8423 -1.7167
ENERGY: 37000 1650.8481 2443.3382 3258.4012 0.0000 -175693.6870 20055.5936 157.9286 0.0000 30719.6791 -117407.8982 298.6784 -148127.5773 -117362.9412 299.7544 22.7523 46.4863 497966.9317 4.6102 4.8958
ENERGY: 38000 1604.4552 2480.4716 3231.8514 0.0000 -175467.2157 19825.4574 162.6647 0.0000 31016.9220 -117145.3935 301.5684 -148162.3155 -117095.3247 300.8232 26.7379 6.6432 496855.5138 -17.4680 -17.2893
ENERGY: 39000 1564.3233 2484.2374 3233.5442 0.0000 -175545.3165 19841.6972 178.3200 0.0000 30785.4757 -117457.7187 299.3181 -148243.1944 -117414.7744 299.7726 83.9291 76.5960 496225.5013 -3.8673 -4.0308
ENERGY: 40000 1642.9465 2432.5052 3206.0389 0.0000 -175977.4371 19909.9728 185.7849 0.0000 30934.3866 -117665.8021 300.7659 -148600.1888 -117625.2838 299.3125 -33.8675 4.1931 495179.8903 -8.7678 -9.0013
TCL: Setting parameter constraintScaling to 0.0390625
TCL: Running for 5000 steps
ETITLE: TS BOND ANGLE DIHED IMPRP ELECT VDW BOUNDARY MISC KINETIC TOTAL TEMP POTENTIAL TOTAL3 TEMPAVG PRESSURE GPRESSURE VOLUME PRESSAVG GPRESSAVG
ENERGY: 40000 1642.9465 2432.5052 3206.0389 0.0000 -175977.4371 19909.9728 92.8924 0.0000 30932.3522 -117760.7290 300.7461 -148693.0812 -117722.0590 300.7461 -52.2741 -12.0154 495179.8903 -52.2741 -12.0154
ENERGY: 41000 1614.6575 2426.3458 3244.7370 0.0000 -175922.2592 20081.6815 116.3609 0.0000 30793.6250 -117644.8514 299.3973 -148438.4765 -117598.4403 299.3058 63.2877 70.6797 497222.7506 -1.7346 -1.3812
ENERGY: 42000 1577.4702 2390.3173 3222.0604 0.0000 -176189.4790 20125.2376 129.4865 0.0000 30615.2857 -118129.6214 297.6634 -148744.9071 -118081.5565 297.1856 -62.6742 12.5946 496015.5039 -4.5151 -4.3903
ENERGY: 43000 1631.5959 2399.0757 3210.3279 0.0000 -175996.5499 20076.9121 133.4533 0.0000 30924.7877 -117620.3973 300.6726 -148545.1850 -117573.9579 298.7726 -62.8439 29.2730 497730.0424 13.0417 13.5328
ENERGY: 44000 1623.2656 2435.4532 3204.0960 0.0000 -175524.1239 20056.0923 130.9810 0.0000 30734.8867 -117339.3492 298.8262 -148074.2359 -117289.2507 300.6149 -29.0274 -69.7064 499051.2301 6.1936 6.2647
ENERGY: 45000 1573.7098 2384.4671 3205.6723 0.0000 -175868.7315 20122.7754 131.0154 0.0000 30930.9240 -117520.1676 300.7322 -148451.0915 -117477.5130 299.9352 130.3899 109.1429 496787.2188 -6.6812 -7.0105
TCL: Setting parameter constraintScaling to 0.01953125
TCL: Running for 5000 steps
ETITLE: TS BOND ANGLE DIHED IMPRP ELECT VDW BOUNDARY MISC KINETIC TOTAL TEMP POTENTIAL TOTAL3 TEMPAVG PRESSURE GPRESSURE VOLUME PRESSAVG GPRESSAVG
ENERGY: 45000 1573.7098 2384.4671 3205.6723 0.0000 -175868.7315 20122.7754 65.5077 0.0000 30928.8980 -117587.7012 300.7125 -148516.5992 -117539.1241 300.7125 113.1749 98.3090 496787.2188 113.1749 98.3090
ENERGY: 46000 1606.2803 2353.6864 3206.2535 0.0000 -176155.4624 20191.9144 84.5691 0.0000 30994.2563 -117718.5025 301.3480 -148712.7588 -117668.6650 299.7287 -15.4898 6.6241 496958.9764 2.3616 2.5731
ENERGY: 47000 1638.9961 2505.2776 3199.7361 0.0000 -176594.8655 20288.2261 83.9085 0.0000 30793.4815 -118085.2396 299.3959 -148878.7211 -118045.3025 298.7930 -106.1745 -18.6267 497423.5389 9.7353 9.5306
ENERGY: 48000 1664.7899 2438.1587 3194.2286 0.0000 -176513.4738 20301.0135 91.5871 0.0000 30748.4116 -118075.2843 298.9577 -148823.6960 -118023.8767 299.2362 -39.0939 -37.7696 497515.6516 4.4753 4.9109
ENERGY: 49000 1679.2607 2402.1845 3225.9748 0.0000 -175797.7332 19937.5131 94.8538 0.0000 30896.2599 -117561.6864 300.3952 -148457.9463 -117515.6224 300.6573 -91.1407 -102.8522 497506.3873 1.4698 1.9360
ENERGY: 50000 1621.0752 2395.0804 3224.4923 0.0000 -175814.0338 20112.3505 99.6830 0.0000 30781.6240 -117579.7285 299.2806 -148361.3525 -117535.7144 299.9395 16.4059 46.5237 497998.4361 3.4456 3.6915
TCL: Setting parameter constraintScaling to 0
TCL: Running for 5000 steps
ETITLE: TS BOND ANGLE DIHED IMPRP ELECT VDW BOUNDARY MISC KINETIC TOTAL TEMP POTENTIAL TOTAL3 TEMPAVG PRESSURE GPRESSURE VOLUME PRESSAVG GPRESSAVG
ENERGY: 50000 1621.0752 2395.0804 3224.4923 0.0000 -175814.0338 20112.3505 0.0000 0.0000 30779.5728 -117681.4626 299.2607 -148461.0354 -117639.0568 299.2607 3.9487 37.2120 497998.4361 3.9487 37.2120
ENERGY: 51000 1634.9162 2400.4109 3195.5314 0.0000 -175645.9511 19983.6743 0.0000 0.0000 30665.9689 -117765.4494 298.1562 -148431.4183 -117725.7844 299.5484 -35.7336 15.7325 497320.1505 -6.0577 -6.1939
ENERGY: 52000 1582.5755 2441.9516 3217.3955 0.0000 -175807.8322 20082.9807 0.0000 0.0000 30733.7006 -117749.2284 298.8147 -148482.9290 -117702.7825 299.5849 -6.5079 21.9955 497375.0965 1.3097 1.1097
ENERGY: 53000 1704.5669 2356.3271 3187.2619 0.0000 -176029.4504 20036.8954 0.0000 0.0000 30771.3719 -117973.0272 299.1810 -148744.3991 -117939.4589 298.0389 3.8752 92.1129 495569.9854 -13.4736 -13.1442
ENERGY: 54000 1663.5723 2455.4528 3188.6146 0.0000 -175670.9137 19848.2556 0.0000 0.0000 30753.2250 -117761.7934 299.0045 -148515.0184 -117715.5266 300.0308 -98.7952 4.1239 496584.4619 8.3717 8.1664
ENERGY: 55000 1615.9354 2409.4318 3213.2152 0.0000 -176157.7715 20202.9922 0.0000 0.0000 30758.7461 -117957.4506 299.0582 -148716.1967 -117916.1884 300.5350 50.8742 -22.6067 496436.3086 -13.9449 -14.0248
