Info: SIMULATION PARAMETERS:
Info: TIMESTEP               2
Info: NUMBER OF STEPS        0
Info: STEPS PER CYCLE        10
Info: PERIODIC CELL BASIS 1  72.449 0 0
Info: PERIODIC CELL BASIS 2  0 93.247 0
Info: PERIODIC CELL BASIS 3  0 0 79.185
Info: PERIODIC CELL CENTER   -0.248 -0.156 -0.047
Info: WRAPPING WATERS AROUND PERIODIC BOUNDARIES ON OUTPUT.
Info: WRAPPING ALL CLUSTERS AROUND PERIODIC BOUNDARIES ON OUTPUT.
Info: FIRST LDB TIMESTEP     50
Info: LAST LDB TIMESTEP     -1
Info: HOM BACKGROUND SCALING 1
Info: PME BACKGROUND SCALING 1
Info: MIN ATOMS PER PATCH    40
Info: INITIAL TEMPERATURE    0
Info: CENTER OF MASS MOVING INITIALLY? NO
Info: DIELECTRIC             1
Info: EXCLUDE                SCALED ONE-FOUR
Info: 1-4 ELECTROSTATICS SCALED BY 0.833333
Info: MODIFIED 1-4 VDW PARAMETERS WILL BE USED
Info: NO DCD TRAJECTORY OUTPUT
Info: NO EXTENDED SYSTEM TRAJECTORY OUTPUT
Info: NO VELOCITY DCD OUTPUT
Info: NO FORCE DCD OUTPUT
Info: OUTPUT FILENAME        ../replicas/rep72/equilibration/eq0
Info: NO RESTART FILE
Info: SWITCHING ACTIVE
Info: SWITCHING ON           10
Info: SWITCHING OFF          12
Info: PAIRLIST DISTANCE      13.5
Info: PAIRLIST SHRINK RATE   0.01
Info: PAIRLIST GROW RATE     0.01
Info: PAIRLIST TRIGGER       0.3
Info: PAIRLISTS PER CYCLE    2
Info: PAIRLISTS ENABLED
Info: MARGIN                 0
Info: HYDROGEN GROUP CUTOFF  2.5
Info: PATCH DIMENSION        16
Info: ENERGY OUTPUT STEPS    500
Info: CROSSTERM ENERGY INCLUDED IN DIHEDRAL
Info: TIMING OUTPUT STEPS    5000
Info: PRESSURE OUTPUT STEPS  500
Info: HARMONIC CONSTRAINTS ACTIVE
Info: HARMONIC CONS EXP      2
Info: HARMONIC CONS SCALING  10
Info: CONJUGATE GRADIENT MINIMIZATION ACTIVE
Info: LINE MINIMIZATION GOAL = 0.001
Info: BABY STEP SIZE = 0.01
Info: TINY STEP SIZE = 1e-06
Info: PARTICLE MESH EWALD (PME) ACTIVE
Info: PME TOLERANCE               1e-06
Info: PME EWALD COEFFICIENT       0.257952
Info: PME INTERPOLATION ORDER     4
Info: PME GRID DIMENSIONS         80 96 80
Info: PME MAXIMUM GRID SPACING    1
Info: FULL ELECTROSTATIC EVALUATION FREQUENCY      2
Info: USING VERLET I (r-RESPA) MTS SCHEME.
Info: C1 SPLITTING OF LONG RANGE ELECTROSTATICS
Info: PLACING ATOMS IN PATCHES BY HYDROGEN GROUPS
Info: RIGID BONDS TO HYDROGEN : ALL
Info:         ERROR TOLERANCE : 1e-05
Info:          MAX ITERATIONS : 100
Info: RIGID WATER USING SETTLE ALGORITHM
Info: RANDOM NUMBER SEED     1503690772
Info: USE HYDROGEN BONDS?    NO
Info: Using AMBER format force field!
Info: AMBER PARM FILE        ../build/complex.top
Info: COORDINATE PDB         ../build/complex.pdb
Info: Exclusions in PARM file will be ignored!
Info: SCNB (VDW SCALING)     2
Info: USING ARITHMETIC MEAN TO COMBINE L-J SIGMA PARAMETERS
Info: SUMMARY OF PARAMETERS:
Info: 71 BONDS
Info: 145 ANGLES
Info: 76 DIHEDRAL
Info: 0 IMPROPER
Info: 0 CROSSTERM
Info: 0 VDW
Info: 190 VDW_PAIRS
Info: 0 NBTHOLE_PAIRS
Info: STRUCTURE SUMMARY:
Info: 49394 ATOMS
Info: 49448 BONDS
Info: 8698 ANGLES
Info: 18780 DIHEDRALS
Info: 0 IMPROPERS
Info: 0 CROSSTERMS
Info: 0 EXCLUSIONS
Info: 2336 CONSTRAINTS
Info: 47058 RIGID BONDS
Info: 101124 DEGREES OF FREEDOM
Info: 17225 HYDROGEN GROUPS
Info: 4 ATOMS IN LARGEST HYDROGEN GROUP
Info: 17225 MIGRATION GROUPS
Info: 4 ATOMS IN LARGEST MIGRATION GROUP
Info: TOTAL MASS = 301478 amu
Info: TOTAL CHARGE = 1.00115e-05 e
Info: MASS DENSITY = 0.935846 g/cm^3
Info: ATOM DENSITY = 0.0923345 atoms/A^3
Info: ADDED 70656 IMPLICIT EXCLUSIONS
Info: NONBONDED TABLE R-SQUARED SPACING: 0.0625
Info: NONBONDED TABLE SIZE: 769 POINTS
Info: REMOVING COM VELOCITY 0 0 0
TCL: Minimizing for 100 steps
ETITLE: TS BOND ANGLE DIHED IMPRP ELECT VDW BOUNDARY MISC KINETIC TOTAL TEMP POTENTIAL TOTAL3 TEMPAVG PRESSURE GPRESSURE VOLUME PRESSAVG GPRESSAVG
ENERGY: 0 155.4176 1012.2698 2855.7272 0.0000 -154496.7910 207729.2052 0.0468 0.0000 0.0000 57255.8756 0.0000 57255.8756 57255.8756 0.0000 116350.2532 86546.1670 534946.2959 116350.2532 86546.1670
ENERGY: 20 304.7548 935.7911 2893.4663 0.0000 -158672.9403 17936.6595 143.9454 0.0000 0.0000 -136458.3232 0.0000 -136458.3232 -136458.3232 0.0000 16523.9388 -239.4557 534946.2959 16523.9388 -239.4557
ENERGY: 40 198.7426 799.5725 2896.9273 0.0000 -162811.4528 16417.9537 221.3029 0.0000 0.0000 -142276.9537 0.0000 -142276.9537 -142276.9537 0.0000 15011.2704 -2135.4697 534946.2959 15011.2704 -2135.4697
ENERGY: 60 130.5285 715.3440 2898.2166 0.0000 -167496.1546 15446.7543 315.2796 0.0000 0.0000 -147990.0316 0.0000 -147990.0316 -147990.0316 0.0000 13793.8843 -3799.3978 534946.2959 13793.8843 -3799.3978
ENERGY: 80 431.2728 765.6308 2904.3783 0.0000 -169937.5145 15121.1542 372.0119 0.0000 0.0000 -150343.0664 0.0000 -150343.0664 -150343.0664 0.0000 13270.3345 -4577.2397 534946.2959 13270.3345 -4577.2397
ENERGY: 100 119.3904 710.0608 2905.2590 0.0000 -171259.7201 14991.7859 387.3614 0.0000 0.0000 -152145.8626 0.0000 -152145.8626 -152145.8626 0.0000 13056.2640 -4908.1751 534946.2959 13056.2640 -4908.1751
TCL: Setting parameter constraintScaling to 5.0
TCL: Minimizing for 100 steps
ETITLE: TS BOND ANGLE DIHED IMPRP ELECT VDW BOUNDARY MISC KINETIC TOTAL TEMP POTENTIAL TOTAL3 TEMPAVG PRESSURE GPRESSURE VOLUME PRESSAVG GPRESSAVG
ENERGY: 100 119.3904 710.0608 2905.2590 0.0000 -171259.7201 14991.7859 193.6807 0.0000 0.0000 -152339.5433 0.0000 -152339.5433 -152339.5433 0.0000 13672.7703 -23021.8214 534946.2959 13672.7703 -23021.8214
ENERGY: 120 108.8901 687.5870 2912.9270 0.0000 -172865.8657 14798.2714 281.1915 0.0000 0.0000 -154076.9986 0.0000 -154076.9986 -154076.9986 0.0000 13218.2568 -4906.0124 534946.2959 13218.2568 -4906.0124
ENERGY: 140 309.5346 708.8866 2913.8027 0.0000 -174236.4324 14731.4936 326.6324 0.0000 0.0000 -155246.0825 0.0000 -155246.0825 -155246.0825 0.0000 12971.5503 -5303.1902 534946.2959 12971.5503 -5303.1902
ENERGY: 160 264.7021 682.9592 2923.1433 0.0000 -176272.1993 14757.1501 382.7724 0.0000 0.0000 -157261.4722 0.0000 -157261.4722 -157261.4722 0.0000 12741.3546 -5741.8227 534946.2959 12741.3546 -5741.8227
ENERGY: 180 269.2421 744.0852 2928.5660 0.0000 -178992.9058 15023.0962 473.1722 0.0000 0.0000 -159554.7441 0.0000 -159554.7441 -159554.7441 0.0000 12521.7370 -6223.1107 534946.2959 12521.7370 -6223.1107
ENERGY: 200 238.5582 694.1365 2941.3408 0.0000 -181554.5378 15586.6521 546.2343 0.0000 0.0000 -161547.6157 0.0000 -161547.6157 -161547.6157 0.0000 12582.6223 -6428.9367 534946.2959 12582.6223 -6428.9367
TCL: Setting parameter constraintScaling to 2.5
TCL: Minimizing for 100 steps
ETITLE: TS BOND ANGLE DIHED IMPRP ELECT VDW BOUNDARY MISC KINETIC TOTAL TEMP POTENTIAL TOTAL3 TEMPAVG PRESSURE GPRESSURE VOLUME PRESSAVG GPRESSAVG
ENERGY: 200 238.5582 694.1365 2941.3408 0.0000 -181554.5378 15586.6521 273.1172 0.0000 0.0000 -161820.7329 0.0000 -161820.7329 -161820.7329 0.0000 13229.4875 -25659.6022 534946.2959 13229.4875 -25659.6022
ENERGY: 220 246.0684 677.6383 2933.0016 0.0000 -182075.3306 15471.3926 337.7038 0.0000 0.0000 -162409.5258 0.0000 -162409.5258 -162409.5258 0.0000 12971.2637 -6094.9141 534946.2959 12971.2637 -6094.9141
ENERGY: 240 139.4200 665.8848 2928.5806 0.0000 -182462.6222 15493.7642 343.7188 0.0000 0.0000 -162891.2539 0.0000 -162891.2539 -162891.2539 0.0000 13033.9016 -6112.7003 534946.2959 13033.9016 -6112.7003
ENERGY: 260 236.4126 703.0874 2922.5766 0.0000 -183754.4521 15759.2047 379.2340 0.0000 0.0000 -163753.9366 0.0000 -163753.9366 -163753.9366 0.0000 13014.1191 -6243.4478 534946.2959 13014.1191 -6243.4478
ENERGY: 280 346.9729 724.4519 2918.0795 0.0000 -185635.6896 16309.3202 468.1123 0.0000 0.0000 -164868.7529 0.0000 -164868.7529 -164868.7529 0.0000 13145.7325 -6368.0094 534946.2959 13145.7325 -6368.0094
ENERGY: 300 196.0098 659.4900 2920.8148 0.0000 -186585.1828 16644.5352 515.7519 0.0000 0.0000 -165648.5810 0.0000 -165648.5810 -165648.5810 0.0000 13240.5412 -6360.6206 534946.2959 13240.5412 -6360.6206
TCL: Setting parameter constraintScaling to 1.25
TCL: Minimizing for 100 steps
ETITLE: TS BOND ANGLE DIHED IMPRP ELECT VDW BOUNDARY MISC KINETIC TOTAL TEMP POTENTIAL TOTAL3 TEMPAVG PRESSURE GPRESSURE VOLUME PRESSAVG GPRESSAVG
ENERGY: 300 196.0098 659.4900 2920.8148 0.0000 -186585.1828 16644.5352 257.8760 0.0000 0.0000 -165906.4570 0.0000 -165906.4570 -165906.4570 0.0000 13703.6478 -26427.5826 534946.2959 13703.6478 -26427.5826
ENERGY: 320 155.1425 660.4329 2909.1491 0.0000 -187285.3724 16816.5621 287.8805 0.0000 0.0000 -166456.2052 0.0000 -166456.2052 -166456.2052 0.0000 13711.0495 -5964.8171 534946.2959 13711.0495 -5964.8171
ENERGY: 340 164.7630 655.7992 2910.0700 0.0000 -187809.4580 16977.9951 309.6619 0.0000 0.0000 -166791.1688 0.0000 -166791.1688 -166791.1688 0.0000 13771.1603 -5967.5508 534946.2959 13771.1603 -5967.5508
ENERGY: 360 237.4631 657.1553 2912.4049 0.0000 -188899.9859 17366.8029 348.4854 0.0000 0.0000 -167377.6745 0.0000 -167377.6745 -167377.6745 0.0000 13843.7784 -6006.1428 534946.2959 13843.7784 -6006.1428
ENERGY: 380 178.8112 648.9307 2897.9598 0.0000 -189274.4080 17473.0913 348.6659 0.0000 0.0000 -167726.9492 0.0000 -167726.9492 -167726.9492 0.0000 13916.4313 -5981.7139 534946.2959 13916.4313 -5981.7139
ENERGY: 400 249.8035 698.4587 2900.4455 0.0000 -190939.1503 18047.5002 388.0984 0.0000 0.0000 -168654.8440 0.0000 -168654.8440 -168654.8440 0.0000 14170.7317 -5942.3397 534946.2959 14170.7317 -5942.3397
TCL: Setting parameter constraintScaling to 0.625
TCL: Minimizing for 100 steps
ETITLE: TS BOND ANGLE DIHED IMPRP ELECT VDW BOUNDARY MISC KINETIC TOTAL TEMP POTENTIAL TOTAL3 TEMPAVG PRESSURE GPRESSURE VOLUME PRESSAVG GPRESSAVG
ENERGY: 400 249.8035 698.4587 2900.4455 0.0000 -190939.1503 18047.5002 194.0492 0.0000 0.0000 -168848.8932 0.0000 -168848.8932 -168848.8932 0.0000 14467.0858 -26693.9422 534946.2959 14467.0858 -26693.9422
ENERGY: 420 153.7819 648.1518 2893.0744 0.0000 -191250.8948 18153.4781 204.5920 0.0000 0.0000 -169197.8165 0.0000 -169197.8165 -169197.8165 0.0000 14454.5300 -5668.0319 534946.2959 14454.5300 -5668.0319
ENERGY: 440 173.9350 695.2044 2893.3666 0.0000 -192115.6031 18522.8737 245.4284 0.0000 0.0000 -169584.7950 0.0000 -169584.7950 -169584.7950 0.0000 14583.1085 -5639.9633 534946.2959 14583.1085 -5639.9633
ENERGY: 460 160.9772 667.1128 2889.4686 0.0000 -193007.3276 18873.4224 288.3581 0.0000 0.0000 -170127.9886 0.0000 -170127.9886 -170127.9886 0.0000 14676.6195 -5643.5963 534946.2959 14676.6195 -5643.5963
ENERGY: 480 168.8771 655.8358 2883.5066 0.0000 -193430.9375 18916.3634 278.7736 0.0000 0.0000 -170527.5810 0.0000 -170527.5810 -170527.5810 0.0000 14695.7158 -5667.8086 534946.2959 14695.7158 -5667.8086
ENERGY: 500 157.2946 676.5408 2899.0958 0.0000 -194216.3655 19267.9948 284.5639 0.0000 0.0000 -170930.8757 0.0000 -170930.8757 -170930.8757 0.0000 14929.4768 -5542.7677 534946.2959 14929.4768 -5542.7677
TCL: Setting parameter constraintScaling to 0.3125
TCL: Minimizing for 100 steps
ETITLE: TS BOND ANGLE DIHED IMPRP ELECT VDW BOUNDARY MISC KINETIC TOTAL TEMP POTENTIAL TOTAL3 TEMPAVG PRESSURE GPRESSURE VOLUME PRESSAVG GPRESSAVG
ENERGY: 500 157.2946 676.5408 2899.0958 0.0000 -194216.3655 19267.9948 142.2820 0.0000 0.0000 -171073.1577 0.0000 -171073.1577 -171073.1577 0.0000 15119.5554 -26814.5211 534946.2959 15119.5554 -26814.5211
ENERGY: 520 164.9520 676.0751 2871.0735 0.0000 -194809.9549 19445.2018 163.6986 0.0000 0.0000 -171488.9538 0.0000 -171488.9538 -171488.9538 0.0000 15134.1871 -5382.9997 534946.2959 15134.1871 -5382.9997
ENERGY: 540 175.1440 678.5699 2881.2071 0.0000 -195431.7390 19746.5634 189.3389 0.0000 0.0000 -171760.9157 0.0000 -171760.9157 -171760.9157 0.0000 15139.7644 -5427.8790 534946.2959 15139.7644 -5427.8790
ENERGY: 560 164.7766 671.1892 2872.8452 0.0000 -196368.4818 20088.7208 213.3482 0.0000 0.0000 -172357.6018 0.0000 -172357.6018 -172357.6018 0.0000 15315.2208 -5371.4940 534946.2959 15315.2208 -5371.4940
ENERGY: 580 185.0965 692.6342 2864.7142 0.0000 -196641.6907 20120.7976 208.8638 0.0000 0.0000 -172569.5844 0.0000 -172569.5844 -172569.5844 0.0000 15407.1648 -5335.3718 534946.2959 15407.1648 -5335.3718
ENERGY: 600 158.3617 672.8015 2868.4050 0.0000 -196829.2983 20193.8049 208.1213 0.0000 0.0000 -172727.8038 0.0000 -172727.8038 -172727.8038 0.0000 15453.3895 -5319.3806 534946.2959 15453.3895 -5319.3806
TCL: Setting parameter constraintScaling to 0.15625
TCL: Minimizing for 100 steps
ETITLE: TS BOND ANGLE DIHED IMPRP ELECT VDW BOUNDARY MISC KINETIC TOTAL TEMP POTENTIAL TOTAL3 TEMPAVG PRESSURE GPRESSURE VOLUME PRESSAVG GPRESSAVG
ENERGY: 600 158.3617 672.8015 2868.4050 0.0000 -196829.2983 20193.8049 104.0607 0.0000 0.0000 -172831.8645 0.0000 -172831.8645 -172831.8645 0.0000 15571.6765 -26968.6808 534946.2959 15571.6765 -26968.6808
ENERGY: 620 171.7495 666.7776 2866.3811 0.0000 -197282.0503 20359.9100 112.3018 0.0000 0.0000 -173104.9303 0.0000 -173104.9303 -173104.9303 0.0000 15663.4987 -5165.8718 534946.2959 15663.4987 -5165.8718
ENERGY: 640 158.3872 650.6272 2860.7590 0.0000 -197600.5941 20497.6808 119.1909 0.0000 0.0000 -173313.9490 0.0000 -173313.9490 -173313.9490 0.0000 15649.1613 -5188.0503 534946.2959 15649.1613 -5188.0503
ENERGY: 660 180.7097 679.6249 2858.4015 0.0000 -197983.5122 20617.6843 122.6098 0.0000 0.0000 -173524.4819 0.0000 -173524.4819 -173524.4819 0.0000 15689.7113 -5197.7657 534946.2959 15689.7113 -5197.7657
ENERGY: 680 193.1793 677.5760 2859.8754 0.0000 -198746.2488 20955.8221 132.7633 0.0000 0.0000 -173927.0328 0.0000 -173927.0328 -173927.0328 0.0000 15890.6215 -5085.5842 534946.2959 15890.6215 -5085.5842
ENERGY: 700 190.9223 666.5058 2850.4470 0.0000 -199569.1941 21252.0885 144.9518 0.0000 0.0000 -174464.2786 0.0000 -174464.2786 -174464.2786 0.0000 16041.7496 -5048.0278 534946.2959 16041.7496 -5048.0278
TCL: Setting parameter constraintScaling to 0.078125
TCL: Minimizing for 100 steps
ETITLE: TS BOND ANGLE DIHED IMPRP ELECT VDW BOUNDARY MISC KINETIC TOTAL TEMP POTENTIAL TOTAL3 TEMPAVG PRESSURE GPRESSURE VOLUME PRESSAVG GPRESSAVG
ENERGY: 700 190.9223 666.5058 2850.4470 0.0000 -199569.1941 21252.0885 72.4759 0.0000 0.0000 -174536.7545 0.0000 -174536.7545 -174536.7545 0.0000 16114.2149 -27083.2701 534946.2959 16114.2149 -27083.2701
ENERGY: 720 387.4025 683.0044 2847.7933 0.0000 -199809.9088 21329.2293 75.4477 0.0000 0.0000 -174487.0318 0.0000 -174487.0318 -174487.0318 0.0000 16070.3270 -5026.9661 534946.2959 16070.3270 -5026.9661
ENERGY: 740 161.9990 645.5886 2841.2378 0.0000 -200161.6265 21476.9349 79.3701 0.0000 0.0000 -174956.4962 0.0000 -174956.4962 -174956.4962 0.0000 16145.5322 -4984.3534 534946.2959 16145.5322 -4984.3534
ENERGY: 760 168.2242 652.2708 2837.3692 0.0000 -200662.1413 21653.7815 84.1465 0.0000 0.0000 -175266.3491 0.0000 -175266.3491 -175266.3491 0.0000 16231.8958 -4958.0894 534946.2959 16231.8958 -4958.0894
ENERGY: 780 182.2825 656.7215 2838.2284 0.0000 -200855.1508 21702.5697 84.6529 0.0000 0.0000 -175390.6958 0.0000 -175390.6958 -175390.6958 0.0000 16276.7617 -4946.6405 534946.2959 16276.7617 -4946.6405
ENERGY: 800 162.2418 645.6046 2836.2265 0.0000 -201247.6465 21844.8354 87.6559 0.0000 0.0000 -175671.0823 0.0000 -175671.0823 -175671.0823 0.0000 16332.6854 -4929.9743 534946.2959 16332.6854 -4929.9743
TCL: Setting parameter constraintScaling to 0.0390625
TCL: Minimizing for 100 steps
ETITLE: TS BOND ANGLE DIHED IMPRP ELECT VDW BOUNDARY MISC KINETIC TOTAL TEMP POTENTIAL TOTAL3 TEMPAVG PRESSURE GPRESSURE VOLUME PRESSAVG GPRESSAVG
ENERGY: 800 162.2418 645.6046 2836.2265 0.0000 -201247.6465 21844.8354 43.8279 0.0000 0.0000 -175714.9103 0.0000 -175714.9103 -175714.9103 0.0000 16373.2300 -27222.8301 534946.2959 16373.2300 -27222.8301
ENERGY: 820 165.9163 653.0637 2831.1972 0.0000 -201517.8240 21958.7785 45.5637 0.0000 0.0000 -175863.3045 0.0000 -175863.3045 -175863.3045 0.0000 16428.6835 -4866.1794 534946.2959 16428.6835 -4866.1794
ENERGY: 840 184.4160 667.8386 2832.5898 0.0000 -201963.9457 22143.9844 48.2954 0.0000 0.0000 -176086.8215 0.0000 -176086.8215 -176086.8215 0.0000 16522.1148 -4837.5097 534946.2959 16522.1148 -4837.5097
ENERGY: 860 172.8512 654.5300 2825.6245 0.0000 -202251.4186 22253.1498 49.7718 0.0000 0.0000 -176295.4913 0.0000 -176295.4913 -176295.4913 0.0000 16561.5693 -4819.7176 534946.2959 16561.5693 -4819.7176
ENERGY: 880 207.6786 665.2816 2827.0281 0.0000 -202513.4597 22345.8142 50.8203 0.0000 0.0000 -176416.8368 0.0000 -176416.8368 -176416.8368 0.0000 16620.3188 -4799.9646 534946.2959 16620.3188 -4799.9646
ENERGY: 900 168.1248 652.2144 2820.9572 0.0000 -203016.4150 22552.2021 52.8094 0.0000 0.0000 -176770.1071 0.0000 -176770.1071 -176770.1071 0.0000 16731.1345 -4741.1593 534946.2959 16731.1345 -4741.1593
TCL: Setting parameter constraintScaling to 0.01953125
TCL: Minimizing for 100 steps
ETITLE: TS BOND ANGLE DIHED IMPRP ELECT VDW BOUNDARY MISC KINETIC TOTAL TEMP POTENTIAL TOTAL3 TEMPAVG PRESSURE GPRESSURE VOLUME PRESSAVG GPRESSAVG
ENERGY: 900 168.1248 652.2144 2820.9572 0.0000 -203016.4150 22552.2021 26.4047 0.0000 0.0000 -176796.5118 0.0000 -176796.5118 -176796.5118 0.0000 16753.8674 -27260.0604 534946.2959 16753.8674 -27260.0604
ENERGY: 920 166.1694 651.7201 2822.7718 0.0000 -203149.9262 22602.8600 26.9177 0.0000 0.0000 -176879.4873 0.0000 -176879.4873 -176879.4873 0.0000 16773.5884 -4716.5098 534946.2959 16773.5884 -4716.5098
ENERGY: 940 171.7935 658.5021 2818.4055 0.0000 -203522.0418 22770.5506 28.1069 0.0000 0.0000 -177074.6832 0.0000 -177074.6832 -177074.6832 0.0000 16850.0518 -4676.0774 534946.2959 16850.0518 -4676.0774
ENERGY: 960 176.7597 666.1702 2818.7617 0.0000 -203940.6812 22942.4698 29.3924 0.0000 0.0000 -177307.1275 0.0000 -177307.1275 -177307.1275 0.0000 16938.5506 -4646.5221 534946.2959 16938.5506 -4646.5221
ENERGY: 980 174.3910 676.8664 2813.5598 0.0000 -204170.2521 23046.7974 29.7935 0.0000 0.0000 -177428.8442 0.0000 -177428.8442 -177428.8442 0.0000 17016.8915 -4593.6353 534946.2959 17016.8915 -4593.6353
ENERGY: 1000 171.5632 654.6910 2817.5406 0.0000 -204562.5857 23211.2198 30.8180 0.0000 0.0000 -177676.7532 0.0000 -177676.7532 -177676.7532 0.0000 17073.0420 -4580.0548 534946.2959 17073.0420 -4580.0548
TCL: Setting parameter constraintScaling to 0
TCL: Minimizing for 5000 steps
ETITLE: TS BOND ANGLE DIHED IMPRP ELECT VDW BOUNDARY MISC KINETIC TOTAL TEMP POTENTIAL TOTAL3 TEMPAVG PRESSURE GPRESSURE VOLUME PRESSAVG GPRESSAVG
ENERGY: 1000 171.5632 654.6910 2817.5406 0.0000 -204562.5857 23211.2198 0.0000 0.0000 0.0000 -177707.5712 0.0000 -177707.5712 -177707.5712 0.0000 17098.2528 -27287.0884 534946.2959 17098.2528 -27287.0884
ENERGY: 2000 168.0385 665.5605 2802.3612 0.0000 -214822.6397 27828.8750 0.0000 0.0000 0.0000 -183357.8045 0.0000 -183357.8045 -183357.8045 0.0000 19552.7288 -3263.6078 534946.2959 19552.7288 -3263.6078
ENERGY: 3000 167.5602 665.4698 2792.0236 0.0000 -217524.7697 28907.5990 0.0000 0.0000 0.0000 -184992.1172 0.0000 -184992.1172 -184992.1172 0.0000 20115.1212 -2982.1460 534946.2959 20115.1212 -2982.1460
ENERGY: 4000 166.6742 665.6518 2782.0346 0.0000 -218794.1965 29406.2584 0.0000 0.0000 0.0000 -185773.5775 0.0000 -185773.5775 -185773.5775 0.0000 20373.2266 -2853.4189 534946.2959 20373.2266 -2853.4189
ENERGY: 5000 165.5209 664.9129 2779.9866 0.0000 -219577.9985 29747.8192 0.0000 0.0000 0.0000 -186219.7588 0.0000 -186219.7588 -186219.7588 0.0000 20558.2890 -2747.8263 534946.2959 20558.2890 -2747.8263
ENERGY: 6000 165.7673 663.1387 2781.1620 0.0000 -220043.0547 29967.9237 0.0000 0.0000 0.0000 -186465.0629 0.0000 -186465.0629 -186465.0629 0.0000 20678.0784 -2675.0987 534946.2959 20678.0784 -2675.0987
