Info: SIMULATION PARAMETERS:
Info: TIMESTEP               2
Info: NUMBER OF STEPS        0
Info: STEPS PER CYCLE        10
Info: PERIODIC CELL BASIS 1  72.449 0 0
Info: PERIODIC CELL BASIS 2  0 93.247 0
Info: PERIODIC CELL BASIS 3  0 0 79.185
Info: PERIODIC CELL CENTER   -0.248 -0.156 -0.047
Info: WRAPPING WATERS AROUND PERIODIC BOUNDARIES ON OUTPUT.
Info: WRAPPING ALL CLUSTERS AROUND PERIODIC BOUNDARIES ON OUTPUT.
Info: FIRST LDB TIMESTEP     50
Info: LAST LDB TIMESTEP     -1
Info: HOM BACKGROUND SCALING 1
Info: PME BACKGROUND SCALING 1
Info: MIN ATOMS PER PATCH    40
Info: INITIAL TEMPERATURE    0
Info: CENTER OF MASS MOVING INITIALLY? NO
Info: DIELECTRIC             1
Info: EXCLUDE                SCALED ONE-FOUR
Info: 1-4 ELECTROSTATICS SCALED BY 0.833333
Info: MODIFIED 1-4 VDW PARAMETERS WILL BE USED
Info: NO DCD TRAJECTORY OUTPUT
Info: NO EXTENDED SYSTEM TRAJECTORY OUTPUT
Info: NO VELOCITY DCD OUTPUT
Info: NO FORCE DCD OUTPUT
Info: OUTPUT FILENAME        ../replicas/rep43/equilibration/eq0
Info: NO RESTART FILE
Info: SWITCHING ACTIVE
Info: SWITCHING ON           10
Info: SWITCHING OFF          12
Info: PAIRLIST DISTANCE      13.5
Info: PAIRLIST SHRINK RATE   0.01
Info: PAIRLIST GROW RATE     0.01
Info: PAIRLIST TRIGGER       0.3
Info: PAIRLISTS PER CYCLE    2
Info: PAIRLISTS ENABLED
Info: MARGIN                 0
Info: HYDROGEN GROUP CUTOFF  2.5
Info: PATCH DIMENSION        16
Info: ENERGY OUTPUT STEPS    500
Info: CROSSTERM ENERGY INCLUDED IN DIHEDRAL
Info: TIMING OUTPUT STEPS    5000
Info: PRESSURE OUTPUT STEPS  500
Info: HARMONIC CONSTRAINTS ACTIVE
Info: HARMONIC CONS EXP      2
Info: HARMONIC CONS SCALING  10
Info: CONJUGATE GRADIENT MINIMIZATION ACTIVE
Info: LINE MINIMIZATION GOAL = 0.001
Info: BABY STEP SIZE = 0.01
Info: TINY STEP SIZE = 1e-06
Info: PARTICLE MESH EWALD (PME) ACTIVE
Info: PME TOLERANCE               1e-06
Info: PME EWALD COEFFICIENT       0.257952
Info: PME INTERPOLATION ORDER     4
Info: PME GRID DIMENSIONS         80 96 80
Info: PME MAXIMUM GRID SPACING    1
Info: FULL ELECTROSTATIC EVALUATION FREQUENCY      2
Info: USING VERLET I (r-RESPA) MTS SCHEME.
Info: C1 SPLITTING OF LONG RANGE ELECTROSTATICS
Info: PLACING ATOMS IN PATCHES BY HYDROGEN GROUPS
Info: RIGID BONDS TO HYDROGEN : ALL
Info:         ERROR TOLERANCE : 1e-05
Info:          MAX ITERATIONS : 100
Info: RIGID WATER USING SETTLE ALGORITHM
Info: RANDOM NUMBER SEED     1503720979
Info: USE HYDROGEN BONDS?    NO
Info: Using AMBER format force field!
Info: AMBER PARM FILE        ../build/complex.top
Info: COORDINATE PDB         ../build/complex.pdb
Info: Exclusions in PARM file will be ignored!
Info: SCNB (VDW SCALING)     2
Info: USING ARITHMETIC MEAN TO COMBINE L-J SIGMA PARAMETERS
Info: SUMMARY OF PARAMETERS:
Info: 71 BONDS
Info: 145 ANGLES
Info: 76 DIHEDRAL
Info: 0 IMPROPER
Info: 0 CROSSTERM
Info: 0 VDW
Info: 190 VDW_PAIRS
Info: 0 NBTHOLE_PAIRS
Info: STRUCTURE SUMMARY:
Info: 49394 ATOMS
Info: 49448 BONDS
Info: 8698 ANGLES
Info: 18780 DIHEDRALS
Info: 0 IMPROPERS
Info: 0 CROSSTERMS
Info: 0 EXCLUSIONS
Info: 2336 CONSTRAINTS
Info: 47058 RIGID BONDS
Info: 101124 DEGREES OF FREEDOM
Info: 17225 HYDROGEN GROUPS
Info: 4 ATOMS IN LARGEST HYDROGEN GROUP
Info: 17225 MIGRATION GROUPS
Info: 4 ATOMS IN LARGEST MIGRATION GROUP
Info: TOTAL MASS = 301478 amu
Info: TOTAL CHARGE = 1.00115e-05 e
Info: MASS DENSITY = 0.935846 g/cm^3
Info: ATOM DENSITY = 0.0923345 atoms/A^3
Info: ADDED 70656 IMPLICIT EXCLUSIONS
Info: NONBONDED TABLE R-SQUARED SPACING: 0.0625
Info: NONBONDED TABLE SIZE: 769 POINTS
Info: REMOVING COM VELOCITY 0 0 0
TCL: Minimizing for 100 steps
ETITLE: TS BOND ANGLE DIHED IMPRP ELECT VDW BOUNDARY MISC KINETIC TOTAL TEMP POTENTIAL TOTAL3 TEMPAVG PRESSURE GPRESSURE VOLUME PRESSAVG GPRESSAVG
ENERGY: 0 155.4176 1012.2698 2855.7272 0.0000 -154496.7912 207729.2052 0.0468 0.0000 0.0000 57255.8754 0.0000 57255.8754 57255.8754 0.0000 116350.2532 86546.1670 534946.2959 116350.2532 86546.1670
ENERGY: 20 304.7565 935.7913 2893.4663 0.0000 -158672.9416 17936.6589 143.9455 0.0000 0.0000 -136458.3231 0.0000 -136458.3231 -136458.3231 0.0000 16523.9381 -239.4565 534946.2959 16523.9381 -239.4565
ENERGY: 40 198.7452 799.5729 2896.9273 0.0000 -162811.4520 16417.9540 221.3030 0.0000 0.0000 -142276.9496 0.0000 -142276.9496 -142276.9496 0.0000 15011.2707 -2135.4693 534946.2959 15011.2707 -2135.4693
ENERGY: 60 130.5282 715.3440 2898.2166 0.0000 -167496.1555 15446.7542 315.2796 0.0000 0.0000 -147990.0329 0.0000 -147990.0329 -147990.0329 0.0000 13793.8841 -3799.3981 534946.2959 13793.8841 -3799.3981
ENERGY: 80 431.2710 765.6304 2904.3786 0.0000 -169937.5259 15121.1528 372.0122 0.0000 0.0000 -150343.0808 0.0000 -150343.0808 -150343.0808 0.0000 13270.3316 -4577.2431 534946.2959 13270.3316 -4577.2431
ENERGY: 100 119.3864 710.0603 2905.2591 0.0000 -171259.7144 14991.7867 387.3614 0.0000 0.0000 -152145.8606 0.0000 -152145.8606 -152145.8606 0.0000 13056.2650 -4908.1729 534946.2959 13056.2650 -4908.1729
TCL: Setting parameter constraintScaling to 5.0
TCL: Minimizing for 100 steps
ETITLE: TS BOND ANGLE DIHED IMPRP ELECT VDW BOUNDARY MISC KINETIC TOTAL TEMP POTENTIAL TOTAL3 TEMPAVG PRESSURE GPRESSURE VOLUME PRESSAVG GPRESSAVG
ENERGY: 100 119.3864 710.0603 2905.2591 0.0000 -171259.7144 14991.7867 193.6807 0.0000 0.0000 -152339.5413 0.0000 -152339.5413 -152339.5413 0.0000 13672.7712 -23021.8193 534946.2959 13672.7712 -23021.8193
ENERGY: 120 108.8828 687.5841 2912.9266 0.0000 -172865.8826 14798.2708 281.1917 0.0000 0.0000 -154077.0266 0.0000 -154077.0266 -154077.0266 0.0000 13218.2550 -4906.0165 534946.2959 13218.2550 -4906.0165
ENERGY: 140 309.4212 708.8667 2913.8024 0.0000 -174236.6716 14731.4812 326.6393 0.0000 0.0000 -155246.4608 0.0000 -155246.4608 -155246.4608 0.0000 12971.5270 -5303.2433 534946.2959 12971.5270 -5303.2433
ENERGY: 160 265.2540 683.1214 2923.1751 0.0000 -176275.3950 14757.3399 382.8915 0.0000 0.0000 -157263.6133 0.0000 -157263.6133 -157263.6133 0.0000 12740.9508 -5743.1739 534946.2959 12740.9508 -5743.1739
ENERGY: 180 268.8808 744.0945 2928.5658 0.0000 -178995.3956 15023.5123 473.3016 0.0000 0.0000 -159557.0406 0.0000 -159557.0406 -159557.0406 0.0000 12521.6039 -6223.9386 534946.2959 12521.6039 -6223.9386
ENERGY: 200 238.9227 694.0921 2941.3639 0.0000 -181556.3369 15587.0696 546.2680 0.0000 0.0000 -161548.6206 0.0000 -161548.6206 -161548.6206 0.0000 12582.6464 -6431.0197 534946.2959 12582.6464 -6431.0197
TCL: Setting parameter constraintScaling to 2.5
TCL: Minimizing for 100 steps
ETITLE: TS BOND ANGLE DIHED IMPRP ELECT VDW BOUNDARY MISC KINETIC TOTAL TEMP POTENTIAL TOTAL3 TEMPAVG PRESSURE GPRESSURE VOLUME PRESSAVG GPRESSAVG
ENERGY: 200 238.9227 694.0921 2941.3639 0.0000 -181556.3369 15587.0696 273.1340 0.0000 0.0000 -161821.7546 0.0000 -161821.7546 -161821.7546 0.0000 13229.5556 -25661.8310 534946.2959 13229.5556 -25661.8310
ENERGY: 220 251.1242 679.9334 2933.0262 0.0000 -182082.9477 15470.9276 338.5795 0.0000 0.0000 -162409.3567 0.0000 -162409.3567 -162409.3567 0.0000 12967.9374 -6101.2406 534946.2959 12967.9374 -6101.2406
ENERGY: 240 139.2952 665.8029 2928.6021 0.0000 -182462.5714 15494.2386 343.5886 0.0000 0.0000 -162891.0440 0.0000 -162891.0440 -162891.0440 0.0000 13034.3212 -6114.1600 534946.2959 13034.3212 -6114.1600
ENERGY: 260 164.5653 683.7488 2921.6110 0.0000 -183940.9315 15800.1413 385.4683 0.0000 0.0000 -163985.3968 0.0000 -163985.3968 -163985.3968 0.0000 13031.8095 -6252.7260 534946.2959 13031.8095 -6252.7260
ENERGY: 280 169.0081 700.8795 2917.6017 0.0000 -185422.6037 16228.7575 454.8355 0.0000 0.0000 -164951.5215 0.0000 -164951.5215 -164951.5215 0.0000 13143.4467 -6344.8358 534946.2959 13143.4467 -6344.8358
ENERGY: 300 126.6743 639.5379 2916.2528 0.0000 -186094.6144 16445.7679 481.3710 0.0000 0.0000 -165485.0106 0.0000 -165485.0106 -165485.0106 0.0000 13207.7271 -6349.0003 534946.2959 13207.7271 -6349.0003
TCL: Setting parameter constraintScaling to 1.25
TCL: Minimizing for 100 steps
ETITLE: TS BOND ANGLE DIHED IMPRP ELECT VDW BOUNDARY MISC KINETIC TOTAL TEMP POTENTIAL TOTAL3 TEMPAVG PRESSURE GPRESSURE VOLUME PRESSAVG GPRESSAVG
ENERGY: 300 126.6743 639.5379 2916.2528 0.0000 -186094.6144 16445.7679 240.6855 0.0000 0.0000 -165725.6961 0.0000 -165725.6961 -165725.6961 0.0000 13656.0724 -26358.9829 534946.2959 13656.0724 -26358.9829
ENERGY: 320 151.9574 633.4901 2910.3666 0.0000 -186874.4642 16640.0215 285.1727 0.0000 0.0000 -166253.4558 0.0000 -166253.4558 -166253.4558 0.0000 13627.8986 -6001.6372 534946.2959 13627.8986 -6001.6372
ENERGY: 340 145.7067 621.1063 2910.2091 0.0000 -187449.5640 16837.2504 297.3361 0.0000 0.0000 -166637.9554 0.0000 -166637.9554 -166637.9554 0.0000 13661.6491 -6013.1585 534946.2959 13661.6491 -6013.1585
ENERGY: 360 162.6792 667.8523 2906.1021 0.0000 -189170.5770 17442.0117 356.7790 0.0000 0.0000 -167635.1527 0.0000 -167635.1527 -167635.1527 0.0000 13950.7403 -5967.5971 534946.2959 13950.7403 -5967.5971
ENERGY: 380 233.2170 640.5933 2899.5911 0.0000 -190605.1476 18013.6562 407.6017 0.0000 0.0000 -168410.4884 0.0000 -168410.4884 -168410.4884 0.0000 14071.1562 -5969.3824 534946.2959 14071.1562 -5969.3824
ENERGY: 400 149.5341 661.6863 2902.4290 0.0000 -190821.7670 18059.9475 404.7935 0.0000 0.0000 -168643.3766 0.0000 -168643.3766 -168643.3766 0.0000 14187.4152 -5918.7283 534946.2959 14187.4152 -5918.7283
TCL: Setting parameter constraintScaling to 0.625
TCL: Minimizing for 100 steps
ETITLE: TS BOND ANGLE DIHED IMPRP ELECT VDW BOUNDARY MISC KINETIC TOTAL TEMP POTENTIAL TOTAL3 TEMPAVG PRESSURE GPRESSURE VOLUME PRESSAVG GPRESSAVG
ENERGY: 400 149.5341 661.6863 2902.4290 0.0000 -190821.7670 18059.9475 202.3967 0.0000 0.0000 -168845.7734 0.0000 -168845.7734 -168845.7734 0.0000 14490.0231 -26630.5043 534946.2959 14490.0231 -26630.5043
ENERGY: 420 176.5346 638.7894 2897.9085 0.0000 -191080.2754 18124.5186 215.9729 0.0000 0.0000 -169026.5513 0.0000 -169026.5513 -169026.5513 0.0000 14380.4455 -5710.7728 534946.2959 14380.4455 -5710.7728
ENERGY: 440 161.1218 640.8046 2890.8464 0.0000 -191679.8045 18292.1081 243.6823 0.0000 0.0000 -169451.2413 0.0000 -169451.2413 -169451.2413 0.0000 14422.4771 -5742.8536 534946.2959 14422.4771 -5742.8536
ENERGY: 460 144.1799 642.6190 2886.1177 0.0000 -192237.0257 18484.7972 257.4953 0.0000 0.0000 -169821.8165 0.0000 -169821.8165 -169821.8165 0.0000 14550.6001 -5701.5376 534946.2959 14550.6001 -5701.5376
ENERGY: 480 319.1889 668.8235 2893.1880 0.0000 -193339.3640 18902.3315 289.0622 0.0000 0.0000 -170266.7700 0.0000 -170266.7700 -170266.7700 0.0000 14627.8189 -5715.9539 534946.2959 14627.8189 -5715.9539
ENERGY: 500 147.8094 639.9121 2882.0317 0.0000 -193696.9027 19044.4239 296.9503 0.0000 0.0000 -170685.7753 0.0000 -170685.7753 -170685.7753 0.0000 14784.7085 -5622.3684 534946.2959 14784.7085 -5622.3684
TCL: Setting parameter constraintScaling to 0.3125
TCL: Minimizing for 100 steps
ETITLE: TS BOND ANGLE DIHED IMPRP ELECT VDW BOUNDARY MISC KINETIC TOTAL TEMP POTENTIAL TOTAL3 TEMPAVG PRESSURE GPRESSURE VOLUME PRESSAVG GPRESSAVG
ENERGY: 500 147.8094 639.9121 2882.0317 0.0000 -193696.9027 19044.4239 148.4751 0.0000 0.0000 -170834.2505 0.0000 -170834.2505 -170834.2505 0.0000 14976.2650 -26819.1628 534946.2959 14976.2650 -26819.1628
ENERGY: 520 158.8780 637.5012 2883.3089 0.0000 -193976.3364 19137.9083 159.0069 0.0000 0.0000 -170999.7330 0.0000 -170999.7330 -170999.7330 0.0000 14919.0573 -5496.3087 534946.2959 14919.0573 -5496.3087
ENERGY: 540 165.4686 641.2551 2880.5611 0.0000 -194461.2467 19312.9448 169.8569 0.0000 0.0000 -171291.1602 0.0000 -171291.1602 -171291.1602 0.0000 14999.5515 -5470.0946 534946.2959 14999.5515 -5470.0946
ENERGY: 560 220.8083 648.0977 2872.9030 0.0000 -195190.9007 19580.5804 185.9772 0.0000 0.0000 -171682.5340 0.0000 -171682.5340 -171682.5340 0.0000 15136.9200 -5432.2887 534946.2959 15136.9200 -5432.2887
ENERGY: 580 150.0056 640.6289 2867.1569 0.0000 -196063.8136 19920.8184 204.5094 0.0000 0.0000 -172280.6945 0.0000 -172280.6945 -172280.6945 0.0000 15283.8993 -5379.9209 534946.2959 15283.8993 -5379.9209
ENERGY: 600 191.5806 686.7253 2872.0871 0.0000 -196550.9445 20097.3043 213.5467 0.0000 0.0000 -172489.7004 0.0000 -172489.7004 -172489.7004 0.0000 15347.1128 -5385.8504 534946.2959 15347.1128 -5385.8504
TCL: Setting parameter constraintScaling to 0.15625
TCL: Minimizing for 100 steps
ETITLE: TS BOND ANGLE DIHED IMPRP ELECT VDW BOUNDARY MISC KINETIC TOTAL TEMP POTENTIAL TOTAL3 TEMPAVG PRESSURE GPRESSURE VOLUME PRESSAVG GPRESSAVG
ENERGY: 600 191.5806 686.7253 2872.0871 0.0000 -196550.9445 20097.3043 106.7734 0.0000 0.0000 -172596.4737 0.0000 -172596.4737 -172596.4737 0.0000 15466.5957 -26997.5702 534946.2959 15466.5957 -26997.5702
ENERGY: 620 159.2203 668.7873 2862.4526 0.0000 -196797.0058 20190.3168 110.0121 0.0000 0.0000 -172806.2167 0.0000 -172806.2167 -172806.2167 0.0000 15522.3462 -5239.5466 534946.2959 15522.3462 -5239.5466
ENERGY: 640 187.6187 648.2865 2859.8133 0.0000 -197485.1656 20433.2081 122.8380 0.0000 0.0000 -173233.4010 0.0000 -173233.4010 -173233.4010 0.0000 15583.7989 -5237.3213 534946.2959 15583.7989 -5237.3213
ENERGY: 660 175.5306 656.2464 2859.5427 0.0000 -198359.5106 20774.6390 134.1620 0.0000 0.0000 -173759.3899 0.0000 -173759.3899 -173759.3899 0.0000 15767.2780 -5160.8473 534946.2959 15767.2780 -5160.8473
ENERGY: 680 167.3880 662.7113 2850.1269 0.0000 -198814.3111 20959.6747 139.5126 0.0000 0.0000 -174034.8976 0.0000 -174034.8976 -174034.8976 0.0000 15865.0270 -5120.1670 534946.2959 15865.0270 -5120.1670
ENERGY: 700 156.6397 654.7561 2845.4032 0.0000 -199474.0257 21223.3555 150.5760 0.0000 0.0000 -174443.2952 0.0000 -174443.2952 -174443.2952 0.0000 15960.8142 -5097.3121 534946.2959 15960.8142 -5097.3121
TCL: Setting parameter constraintScaling to 0.078125
TCL: Minimizing for 100 steps
ETITLE: TS BOND ANGLE DIHED IMPRP ELECT VDW BOUNDARY MISC KINETIC TOTAL TEMP POTENTIAL TOTAL3 TEMPAVG PRESSURE GPRESSURE VOLUME PRESSAVG GPRESSAVG
ENERGY: 700 156.6397 654.7561 2845.4032 0.0000 -199474.0257 21223.3555 75.2880 0.0000 0.0000 -174518.5832 0.0000 -174518.5832 -174518.5832 0.0000 16034.3993 -27130.0271 534946.2959 16034.3993 -27130.0271
ENERGY: 720 157.5561 649.6603 2845.7097 0.0000 -199814.7159 21341.1311 77.7847 0.0000 0.0000 -174742.8739 0.0000 -174742.8739 -174742.8739 0.0000 16109.9405 -4990.5894 534946.2959 16109.9405 -4990.5894
ENERGY: 740 159.2053 650.7044 2839.1464 0.0000 -200257.5676 21490.1318 82.3337 0.0000 0.0000 -175036.0461 0.0000 -175036.0461 -175036.0461 0.0000 16158.0076 -4995.3005 534946.2959 16158.0076 -4995.3005
ENERGY: 760 161.9318 651.1992 2838.1195 0.0000 -200613.1891 21619.0388 85.4189 0.0000 0.0000 -175257.4809 0.0000 -175257.4809 -175257.4809 0.0000 16219.5536 -4971.6349 534946.2959 16219.5536 -4971.6349
ENERGY: 780 172.6769 672.1092 2842.2548 0.0000 -201138.0476 21828.3800 87.8515 0.0000 0.0000 -175534.7752 0.0000 -175534.7752 -175534.7752 0.0000 16377.6309 -4885.4576 534946.2959 16377.6309 -4885.4576
ENERGY: 800 189.0756 680.6317 2830.4937 0.0000 -201948.2911 22144.4461 97.4174 0.0000 0.0000 -176006.2267 0.0000 -176006.2267 -176006.2267 0.0000 16470.0575 -4886.5995 534946.2959 16470.0575 -4886.5995
TCL: Setting parameter constraintScaling to 0.0390625
TCL: Minimizing for 100 steps
ETITLE: TS BOND ANGLE DIHED IMPRP ELECT VDW BOUNDARY MISC KINETIC TOTAL TEMP POTENTIAL TOTAL3 TEMPAVG PRESSURE GPRESSURE VOLUME PRESSAVG GPRESSAVG
ENERGY: 800 189.0756 680.6317 2830.4937 0.0000 -201948.2911 22144.4461 48.7087 0.0000 0.0000 -176054.9354 0.0000 -176054.9354 -176054.9354 0.0000 16513.0673 -27249.3828 534946.2959 16513.0673 -27249.3828
ENERGY: 820 162.0032 644.7248 2827.7991 0.0000 -202036.8206 22177.4875 48.5834 0.0000 0.0000 -176176.2225 0.0000 -176176.2225 -176176.2225 0.0000 16537.2924 -4823.5125 534946.2959 16537.2924 -4823.5125
ENERGY: 840 261.4587 670.6428 2831.0171 0.0000 -202498.8464 22360.8547 50.9807 0.0000 0.0000 -176323.8924 0.0000 -176323.8924 -176323.8924 0.0000 16601.2331 -4804.9729 534946.2959 16601.2331 -4804.9729
ENERGY: 860 162.2378 649.9298 2824.1798 0.0000 -202706.3727 22437.7217 52.2526 0.0000 0.0000 -176580.0510 0.0000 -176580.0510 -176580.0510 0.0000 16662.2175 -4776.6157 534946.2959 16662.2175 -4776.6157
ENERGY: 880 177.3416 662.0654 2824.1016 0.0000 -202840.6538 22488.8784 52.8807 0.0000 0.0000 -176635.3862 0.0000 -176635.3862 -176635.3862 0.0000 16698.9573 -4761.0768 534946.2959 16698.9573 -4761.0768
ENERGY: 900 228.3938 663.5980 2824.2325 0.0000 -203138.2277 22607.5077 54.2508 0.0000 0.0000 -176760.2449 0.0000 -176760.2449 -176760.2449 0.0000 16734.8118 -4758.9023 534946.2959 16734.8118 -4758.9023
TCL: Setting parameter constraintScaling to 0.01953125
TCL: Minimizing for 100 steps
ETITLE: TS BOND ANGLE DIHED IMPRP ELECT VDW BOUNDARY MISC KINETIC TOTAL TEMP POTENTIAL TOTAL3 TEMPAVG PRESSURE GPRESSURE VOLUME PRESSAVG GPRESSAVG
ENERGY: 900 228.3938 663.5980 2824.2325 0.0000 -203138.2277 22607.5077 27.1254 0.0000 0.0000 -176787.3703 0.0000 -176787.3703 -176787.3703 0.0000 16757.9103 -27284.8277 534946.2959 16757.9103 -27284.8277
ENERGY: 920 181.2765 671.3708 2820.2327 0.0000 -203374.3369 22715.9609 27.8921 0.0000 0.0000 -176957.6040 0.0000 -176957.6040 -176957.6040 0.0000 16836.1461 -4680.4467 534946.2959 16836.1461 -4680.4467
ENERGY: 940 163.6824 664.7872 2820.4089 0.0000 -203603.0562 22798.8224 28.6113 0.0000 0.0000 -177126.7440 0.0000 -177126.7440 -177126.7440 0.0000 16861.0168 -4686.5491 534946.2959 16861.0168 -4686.5491
ENERGY: 960 181.4603 668.9824 2816.6531 0.0000 -203989.1517 22970.6024 29.5806 0.0000 0.0000 -177321.8730 0.0000 -177321.8730 -177321.8730 0.0000 16950.1349 -4637.2684 534946.2959 16950.1349 -4637.2684
ENERGY: 980 163.0471 653.5160 2817.0102 0.0000 -204033.5809 22984.1833 29.7942 0.0000 0.0000 -177386.0301 0.0000 -177386.0301 -177386.0301 0.0000 16962.6468 -4637.2750 534946.2959 16962.6468 -4637.2750
ENERGY: 1000 179.9151 670.3981 2816.5838 0.0000 -204355.6329 23133.2498 30.8285 0.0000 0.0000 -177524.6576 0.0000 -177524.6576 -177524.6576 0.0000 17042.7699 -4594.3771 534946.2959 17042.7699 -4594.3771
TCL: Setting parameter constraintScaling to 0
TCL: Minimizing for 5000 steps
ETITLE: TS BOND ANGLE DIHED IMPRP ELECT VDW BOUNDARY MISC KINETIC TOTAL TEMP POTENTIAL TOTAL3 TEMPAVG PRESSURE GPRESSURE VOLUME PRESSAVG GPRESSAVG
ENERGY: 1000 179.9151 670.3981 2816.5838 0.0000 -204355.6329 23133.2498 0.0000 0.0000 0.0000 -177555.4861 0.0000 -177555.4861 -177555.4861 0.0000 17067.8508 -27266.6786 534946.2959 17067.8508 -27266.6786
ENERGY: 2000 168.8833 662.5149 2801.0145 0.0000 -214560.5422 27617.8937 0.0000 0.0000 0.0000 -183310.2357 0.0000 -183310.2357 -183310.2357 0.0000 19424.4641 -3366.3390 534946.2959 19424.4641 -3366.3390
ENERGY: 3000 168.3943 667.6161 2792.6438 0.0000 -217419.1783 28833.4257 0.0000 0.0000 0.0000 -184957.0984 0.0000 -184957.0984 -184957.0984 0.0000 20071.5422 -3017.1272 534946.2959 20071.5422 -3017.1272
ENERGY: 4000 166.5813 666.3033 2788.0631 0.0000 -218824.6362 29431.8192 0.0000 0.0000 0.0000 -185771.8692 0.0000 -185771.8692 -185771.8692 0.0000 20394.4112 -2836.2588 534946.2959 20394.4112 -2836.2588
ENERGY: 5000 166.5212 666.0156 2786.7192 0.0000 -219444.7590 29657.0723 0.0000 0.0000 0.0000 -186168.4307 0.0000 -186168.4307 -186168.4307 0.0000 20506.8515 -2784.1425 534946.2959 20506.8515 -2784.1425
ENERGY: 6000 166.5414 665.7536 2785.7201 0.0000 -219870.0714 29811.7199 0.0000 0.0000 0.0000 -186440.3365 0.0000 -186440.3365 -186440.3365 0.0000 20587.1228 -2745.5148 534946.2959 20587.1228 -2745.5148
