Info: SIMULATION PARAMETERS:
Info: TIMESTEP               1
Info: NUMBER OF STEPS        0
Info: STEPS PER CYCLE        10
Info: PERIODIC CELL BASIS 1  72.449 0 0
Info: PERIODIC CELL BASIS 2  0 93.247 0
Info: PERIODIC CELL BASIS 3  0 0 79.185
Info: PERIODIC CELL CENTER   -0.248 -0.156 -0.047
Info: WRAPPING WATERS AROUND PERIODIC BOUNDARIES ON OUTPUT.
Info: WRAPPING ALL CLUSTERS AROUND PERIODIC BOUNDARIES ON OUTPUT.
Info: FIRST LDB TIMESTEP     50
Info: LAST LDB TIMESTEP     -1
Info: HOM BACKGROUND SCALING 1
Info: PME BACKGROUND SCALING 1
Info: MIN ATOMS PER PATCH    40
Info: VELOCITY FILE          ../replicas/rep6/equilibration/eq1.vel
Info: CENTER OF MASS MOVING INITIALLY? NO
Info: DIELECTRIC             1
Info: EXCLUDE                SCALED ONE-FOUR
Info: 1-4 ELECTROSTATICS SCALED BY 0.833333
Info: MODIFIED 1-4 VDW PARAMETERS WILL BE USED
Info: DCD FILENAME           ../replicas/rep6/equilibration/eq2.dcd
Info: DCD FREQUENCY          5000
Info: DCD FIRST STEP         5000
Info: DCD FILE WILL CONTAIN UNIT CELL DATA
Info: XST FILENAME           ../replicas/rep6/equilibration/eq2.xst
Info: XST FREQUENCY          5000
Info: NO VELOCITY DCD OUTPUT
Info: NO FORCE DCD OUTPUT
Info: OUTPUT FILENAME        ../replicas/rep6/equilibration/eq2
Info: RESTART FILENAME       ../replicas/rep6/equilibration/eq2.restart
Info: RESTART FREQUENCY      5000
Info: BINARY RESTART FILES WILL BE USED
Info: SWITCHING ACTIVE
Info: SWITCHING ON           10
Info: SWITCHING OFF          12
Info: PAIRLIST DISTANCE      13.5
Info: PAIRLIST SHRINK RATE   0.01
Info: PAIRLIST GROW RATE     0.01
Info: PAIRLIST TRIGGER       0.3
Info: PAIRLISTS PER CYCLE    2
Info: PAIRLISTS ENABLED
Info: MARGIN                 0.48
Info: HYDROGEN GROUP CUTOFF  2.5
Info: PATCH DIMENSION        16.48
Info: ENERGY OUTPUT STEPS    500
Info: CROSSTERM ENERGY INCLUDED IN DIHEDRAL
Info: TIMING OUTPUT STEPS    5000
Info: PRESSURE OUTPUT STEPS  500
Info: HARMONIC CONSTRAINTS ACTIVE
Info: HARMONIC CONS EXP      2
Info: HARMONIC CONS SCALING  10
Info: LANGEVIN DYNAMICS ACTIVE
Info: LANGEVIN TEMPERATURE   300
Info: LANGEVIN USING BBK INTEGRATOR
Info: LANGEVIN DAMPING COEFFICIENT IS 5 INVERSE PS
Info: LANGEVIN DYNAMICS NOT APPLIED TO HYDROGENS
Info: BERENDSEN PRESSURE COUPLING ACTIVE
Info:     TARGET PRESSURE IS 1 BAR
Info:     COMPRESSIBILITY ESTIMATE IS 4.57e-05 BAR^(-1)
Info:     RELAXATION TIME IS 100 FS
Info:     APPLIED EVERY 2 STEPS
Info:     PRESSURE CONTROL IS GROUP-BASED
Info:       CELL FLUCTUATION IS ISOTROPIC
Info: PARTICLE MESH EWALD (PME) ACTIVE
Info: PME TOLERANCE               1e-06
Info: PME EWALD COEFFICIENT       0.257952
Info: PME INTERPOLATION ORDER     4
Info: PME GRID DIMENSIONS         80 96 80
Info: PME MAXIMUM GRID SPACING    1
Info: FULL ELECTROSTATIC EVALUATION FREQUENCY      2
Info: USING VERLET I (r-RESPA) MTS SCHEME.
Info: C1 SPLITTING OF LONG RANGE ELECTROSTATICS
Info: PLACING ATOMS IN PATCHES BY HYDROGEN GROUPS
Info: RIGID BONDS TO HYDROGEN : WATER
Info:         ERROR TOLERANCE : 1e-05
Info:          MAX ITERATIONS : 100
Info: RIGID WATER USING SETTLE ALGORITHM
Info: RANDOM NUMBER SEED     1503261176
Info: USE HYDROGEN BONDS?    NO
Info: Using AMBER format force field!
Info: AMBER PARM FILE        ../build/complex.top
Info: COORDINATE PDB         ../replicas/rep6/equilibration/eq1.coor
Info: Exclusions in PARM file will be ignored!
Info: SCNB (VDW SCALING)     2
Info: USING ARITHMETIC MEAN TO COMBINE L-J SIGMA PARAMETERS
Info: SUMMARY OF PARAMETERS:
Info: 71 BONDS
Info: 145 ANGLES
Info: 76 DIHEDRAL
Info: 0 IMPROPER
Info: 0 CROSSTERM
Info: 0 VDW
Info: 190 VDW_PAIRS
Info: 0 NBTHOLE_PAIRS
Info: STRUCTURE SUMMARY:
Info: 49394 ATOMS
Info: 49448 BONDS
Info: 8698 ANGLES
Info: 18780 DIHEDRALS
Info: 0 IMPROPERS
Info: 0 CROSSTERMS
Info: 0 EXCLUSIONS
Info: 2336 CONSTRAINTS
Info: 44667 RIGID BONDS
Info: 103515 DEGREES OF FREEDOM
Info: 17225 HYDROGEN GROUPS
Info: 4 ATOMS IN LARGEST HYDROGEN GROUP
Info: 17225 MIGRATION GROUPS
Info: 4 ATOMS IN LARGEST MIGRATION GROUP
Info: TOTAL MASS = 301478 amu
Info: TOTAL CHARGE = 1.00115e-05 e
Info: MASS DENSITY = 0.935846 g/cm^3
Info: ATOM DENSITY = 0.0923345 atoms/A^3
Info: ADDED 70656 IMPLICIT EXCLUSIONS
Info: NONBONDED TABLE R-SQUARED SPACING: 0.0625
Info: NONBONDED TABLE SIZE: 769 POINTS
Info: REMOVING COM VELOCITY -0.0388314 0.00148259 0.0131631
TCL: Running for 5000 steps
ETITLE: TS BOND ANGLE DIHED IMPRP ELECT VDW BOUNDARY MISC KINETIC TOTAL TEMP POTENTIAL TOTAL3 TEMPAVG PRESSURE GPRESSURE VOLUME PRESSAVG GPRESSAVG
ENERGY: 0 388.9243 1222.2973 2908.7941 0.0000 -213030.5754 29708.9591 0.0000 0.0000 10066.7657 -168734.8348 97.8762 -178801.6005 -168725.2323 97.8762 -2345.0266 -2442.5739 534946.2959 -2345.0266 -2442.5739
ENERGY: 1000 1252.1283 1959.7208 3124.7952 0.0000 -193516.9280 26444.0815 796.7167 0.0000 24118.6855 -135820.8000 234.4989 -159939.4855 -135784.4075 218.9087 -11.3350 17.6459 524326.9151 -10.6554 -11.0191
ENERGY: 2000 1478.5801 2111.3676 3119.7723 0.0000 -184005.8518 23284.5041 766.5310 0.0000 27734.2514 -125510.8453 269.6519 -153245.0967 -125479.1737 263.5396 -12.2329 -50.8914 518311.9599 -17.9564 -18.3115
ENERGY: 3000 1569.0048 2233.8072 3117.6353 0.0000 -179096.5031 21608.4932 823.7391 0.0000 29536.7456 -120207.0779 287.1771 -149743.8235 -120164.0136 283.4387 -156.0967 -24.7271 512346.2391 -28.7441 -28.5287
ENERGY: 4000 1554.8674 2257.8114 3163.3830 0.0000 -177026.6745 20799.4026 799.8894 0.0000 30291.0663 -118160.2543 294.5111 -148451.3207 -118123.2428 292.9746 -51.3051 -27.3436 507551.1895 -21.1326 -21.3026
ENERGY: 5000 1578.7998 2291.6737 3134.5235 0.0000 -175601.9307 20269.1235 792.4467 0.0000 30670.7737 -116864.5898 298.2029 -147535.3636 -116823.8070 297.4752 -22.9026 0.2998 506655.6519 1.9513 1.2397
TCL: Setting parameter constraintScaling to 5.0
TCL: Running for 5000 steps
ETITLE: TS BOND ANGLE DIHED IMPRP ELECT VDW BOUNDARY MISC KINETIC TOTAL TEMP POTENTIAL TOTAL3 TEMPAVG PRESSURE GPRESSURE VOLUME PRESSAVG GPRESSAVG
ENERGY: 5000 1578.7998 2291.6737 3134.5235 0.0000 -175601.9307 20269.1235 396.2233 0.0000 30668.7220 -117262.8649 298.1829 -147931.5869 -117220.3862 298.1829 -133.4267 -112.7289 506655.6519 -133.4267 -112.7289
ENERGY: 6000 1634.4922 2300.4866 3179.3180 0.0000 -175560.9142 20267.7097 594.9419 0.0000 30791.6059 -116792.3600 299.3777 -147583.9659 -116744.9411 299.2610 15.7491 29.2278 504802.9023 -3.2280 -3.7296
ENERGY: 7000 1583.7327 2307.6159 3145.1939 0.0000 -175747.9297 20300.6854 637.8004 0.0000 30835.4041 -116937.4974 299.8035 -147772.9015 -116883.0274 299.2607 -67.9180 14.7186 502410.3862 -6.4607 -6.6174
ENERGY: 8000 1617.0309 2309.2725 3151.2734 0.0000 -175617.5966 20242.3802 635.1026 0.0000 30911.0284 -116751.5086 300.5388 -147662.5369 -116709.0437 299.6228 27.6821 -15.9093 501677.2364 4.5695 4.0891
ENERGY: 9000 1619.8255 2304.5454 3150.5663 0.0000 -175651.9339 20027.4598 640.6721 0.0000 30965.1648 -116943.6999 301.0652 -147908.8647 -116894.5393 300.2987 -102.7888 16.6112 501258.3183 -1.6047 -1.5932
ENERGY: 10000 1631.6063 2321.4934 3173.4585 0.0000 -175578.0591 20179.5562 673.7178 0.0000 30868.5062 -116729.7208 300.1254 -147598.2269 -116690.0790 300.0737 -30.4027 5.8814 500089.8176 1.8159 2.4636
TCL: Setting parameter constraintScaling to 2.5
TCL: Running for 5000 steps
ETITLE: TS BOND ANGLE DIHED IMPRP ELECT VDW BOUNDARY MISC KINETIC TOTAL TEMP POTENTIAL TOTAL3 TEMPAVG PRESSURE GPRESSURE VOLUME PRESSAVG GPRESSAVG
ENERGY: 10000 1631.6063 2321.4934 3173.4585 0.0000 -175578.0591 20179.5562 336.8589 0.0000 30866.4596 -117068.6262 300.1055 -147935.0858 -117024.9860 300.1055 -4.7320 15.1631 500089.8176 -4.7320 15.1631
ENERGY: 11000 1609.3572 2329.3700 3187.9136 0.0000 -176254.5222 20630.8921 504.8968 0.0000 30742.5069 -117249.5856 298.9003 -147992.0924 -117199.8566 299.3161 96.4017 44.1204 501575.2095 3.2727 3.4375
ENERGY: 12000 1571.2190 2301.7394 3181.8820 0.0000 -175762.1168 20039.5832 507.3287 0.0000 30908.7644 -117251.6001 300.5168 -148160.3646 -117225.5083 298.9421 39.8061 -11.2633 500252.5365 -10.1763 -10.2103
ENERGY: 13000 1611.5911 2284.6584 3198.5726 0.0000 -175908.8747 20168.7449 512.6254 0.0000 30703.6345 -117429.0476 298.5224 -148132.6821 -117376.8925 299.9413 -50.8203 21.1214 498253.0260 -7.8138 -7.9875
ENERGY: 14000 1596.1968 2349.6384 3180.1412 0.0000 -175406.4568 19964.6362 512.6945 0.0000 30735.6836 -117067.4660 298.8340 -147803.1496 -117019.5128 299.9369 24.9603 -42.6592 498299.0024 -12.0700 -12.2279
ENERGY: 15000 1615.0928 2302.6103 3163.3848 0.0000 -175671.0191 20196.2530 513.1586 0.0000 30825.4363 -117055.0832 299.7066 -147880.5195 -117011.9096 299.7881 -92.7004 -51.0337 499477.2028 7.0406 7.0286
TCL: Setting parameter constraintScaling to 1.25
TCL: Running for 5000 steps
ETITLE: TS BOND ANGLE DIHED IMPRP ELECT VDW BOUNDARY MISC KINETIC TOTAL TEMP POTENTIAL TOTAL3 TEMPAVG PRESSURE GPRESSURE VOLUME PRESSAVG GPRESSAVG
ENERGY: 15000 1615.0928 2302.6103 3163.3848 0.0000 -175671.0191 20196.2530 256.5793 0.0000 30823.3831 -117313.7157 299.6867 -148137.0988 -117270.1597 299.6867 -112.6379 -70.2511 499477.2028 -112.6379 -70.2511
ENERGY: 16000 1588.4139 2381.3661 3171.3104 0.0000 -175307.0047 19914.7343 411.9926 0.0000 30788.9166 -117050.2708 299.3515 -147839.1874 -117005.5337 298.9754 9.1642 31.9683 500080.2927 5.8458 6.2821
ENERGY: 17000 1675.6772 2388.9342 3166.6898 0.0000 -175138.1229 20153.1245 408.5583 0.0000 30745.2388 -116599.9002 298.9269 -147345.1389 -116551.6540 300.6719 -154.5457 -19.2223 500855.8802 6.9498 6.9933
ENERGY: 18000 1612.2522 2414.3751 3224.8957 0.0000 -176100.8424 20378.3797 410.2546 0.0000 30908.8480 -117151.8372 300.5176 -148060.6851 -117111.8163 300.6870 -31.5186 6.7666 499554.5164 -4.5165 -4.3553
ENERGY: 19000 1690.8016 2359.8484 3189.9378 0.0000 -175506.9904 19850.5946 413.3721 0.0000 30909.2110 -117093.2250 300.5211 -148002.4360 -117043.8211 300.2602 -18.2484 -0.4451 499221.0535 -6.3058 -6.1518
ENERGY: 20000 1659.8005 2390.0953 3197.5617 0.0000 -175984.2005 20150.9453 416.5898 0.0000 30768.0114 -117401.1965 299.1483 -148169.2079 -117368.0457 299.3913 -94.9905 -6.0975 499088.7197 2.0797 1.8544
TCL: Setting parameter constraintScaling to 0.625
TCL: Running for 5000 steps
ETITLE: TS BOND ANGLE DIHED IMPRP ELECT VDW BOUNDARY MISC KINETIC TOTAL TEMP POTENTIAL TOTAL3 TEMPAVG PRESSURE GPRESSURE VOLUME PRESSAVG GPRESSAVG
ENERGY: 20000 1659.8005 2390.0953 3197.5617 0.0000 -175984.2005 20150.9453 208.2949 0.0000 30765.9461 -117611.5568 299.1282 -148377.5028 -117567.3984 299.1282 -106.1799 -11.3122 499088.7197 -106.1799 -11.3122
ENERGY: 21000 1569.0899 2352.6750 3218.5599 0.0000 -175289.5996 19996.3261 323.5995 0.0000 30524.0028 -117305.3465 296.7759 -147829.3493 -117252.7208 300.0760 -1.9210 88.8925 500271.6842 13.8337 14.3159
ENERGY: 22000 1613.1644 2305.2117 3190.0630 0.0000 -176270.9461 20476.9458 314.7642 0.0000 30898.4425 -117472.3546 300.4164 -148370.7970 -117421.0421 299.0748 -43.1517 -63.6600 497532.3659 -7.7634 -8.3345
ENERGY: 23000 1669.2485 2429.7400 3229.3020 0.0000 -175386.2697 19724.4578 331.7978 0.0000 30950.4593 -117051.2643 300.9222 -148001.7236 -117012.0991 300.1957 -43.2639 -14.9807 498489.8948 -4.6280 -3.9193
ENERGY: 24000 1591.8367 2397.1086 3177.0309 0.0000 -175601.2720 19984.4178 308.2395 0.0000 30877.0965 -117265.5421 300.2089 -148142.6385 -117218.7647 300.6157 -90.7202 -30.7892 499934.0968 2.1789 1.9593
ENERGY: 25000 1635.1115 2353.2100 3187.6807 0.0000 -175768.5992 20041.9348 315.3767 0.0000 30817.5896 -117417.6959 299.6303 -148235.2855 -117377.2568 298.4746 -61.2685 -88.8697 498380.0563 -1.6824 -1.2717
TCL: Setting parameter constraintScaling to 0.3125
TCL: Running for 5000 steps
ETITLE: TS BOND ANGLE DIHED IMPRP ELECT VDW BOUNDARY MISC KINETIC TOTAL TEMP POTENTIAL TOTAL3 TEMPAVG PRESSURE GPRESSURE VOLUME PRESSAVG GPRESSAVG
ENERGY: 25000 1635.1115 2353.2100 3187.6807 0.0000 -175768.5992 20041.9348 157.6883 0.0000 30815.5156 -117577.4583 299.6102 -148392.9739 -117536.8680 299.6102 -73.7730 -113.5130 498380.0563 -73.7730 -113.5130
ENERGY: 26000 1630.8464 2400.9696 3224.9317 0.0000 -175722.0376 20216.0250 259.1100 0.0000 30937.6304 -117052.5244 300.7974 -147990.1548 -117001.8940 300.3332 -37.5829 3.9849 498405.6349 0.0095 -0.1481
ENERGY: 27000 1669.0643 2390.9615 3212.7122 0.0000 -175448.5241 19888.9241 262.6779 0.0000 30956.3776 -117067.8065 300.9797 -148024.1841 -117017.8290 300.8906 26.0046 66.9483 498309.3330 1.8236 2.0936
ENERGY: 28000 1639.3171 2457.1981 3180.1223 0.0000 -175558.4679 20092.8144 263.1286 0.0000 31035.1243 -116890.7630 301.7454 -147925.8874 -116848.2342 301.3243 71.1405 16.6036 498068.8482 -1.7582 -1.5418
ENERGY: 29000 1601.6644 2398.6691 3208.8706 0.0000 -175080.9557 19892.6272 258.5459 0.0000 30852.6966 -116867.8818 299.9717 -147720.5784 -116827.7855 300.6510 -161.7359 -73.6339 498081.8931 5.8945 6.2798
ENERGY: 30000 1599.2445 2357.2312 3228.5286 0.0000 -175875.9019 20081.2738 274.5480 0.0000 30774.3157 -117560.7601 299.2096 -148335.0758 -117515.8336 299.7180 -100.9779 -64.4488 497508.2065 10.0172 9.9951
TCL: Setting parameter constraintScaling to 0.15625
TCL: Running for 5000 steps
ETITLE: TS BOND ANGLE DIHED IMPRP ELECT VDW BOUNDARY MISC KINETIC TOTAL TEMP POTENTIAL TOTAL3 TEMPAVG PRESSURE GPRESSURE VOLUME PRESSAVG GPRESSAVG
ENERGY: 30000 1599.2445 2357.2312 3228.5286 0.0000 -175875.9019 20081.2738 137.2740 0.0000 30772.2578 -117700.0920 299.1896 -148472.3498 -117657.9074 299.1896 -132.9031 -98.0293 497508.2065 -132.9031 -98.0293
ENERGY: 31000 1602.9185 2406.9696 3208.6461 0.0000 -175836.5848 20025.3010 196.8068 0.0000 30651.3354 -117744.6075 298.0139 -148395.9429 -117705.9306 298.5761 -126.6094 -108.8987 497147.8186 -0.7520 -0.3385
ENERGY: 32000 1644.3562 2345.0536 3211.5177 0.0000 -175815.7060 20057.7587 203.4513 0.0000 30913.9638 -117439.6047 300.5673 -148353.5685 -117396.3979 299.7133 -72.4620 -62.4078 497129.1916 6.9868 7.3854
ENERGY: 33000 1657.6307 2437.0255 3227.1996 0.0000 -175748.6829 19943.6840 192.5866 0.0000 30822.9325 -117467.6241 299.6823 -148290.5566 -117421.4728 299.6066 -224.6803 -15.6307 498299.0226 5.6739 5.5611
ENERGY: 34000 1670.5386 2380.6419 3208.5511 0.0000 -176013.6100 20124.6246 199.8617 0.0000 30737.3375 -117692.0546 298.8501 -148429.3921 -117646.9559 299.4648 -32.2592 55.3414 497496.9446 4.5728 4.9688
ENERGY: 35000 1657.1712 2460.2058 3232.2493 0.0000 -176060.7054 20146.7606 208.0661 0.0000 30916.4533 -117439.7991 300.5915 -148356.2524 -117399.9560 300.4604 -14.7250 -4.2508 497169.3484 8.3958 8.4984
TCL: Setting parameter constraintScaling to 0.078125
TCL: Running for 5000 steps
ETITLE: TS BOND ANGLE DIHED IMPRP ELECT VDW BOUNDARY MISC KINETIC TOTAL TEMP POTENTIAL TOTAL3 TEMPAVG PRESSURE GPRESSURE VOLUME PRESSAVG GPRESSAVG
ENERGY: 35000 1657.1712 2460.2058 3232.2493 0.0000 -176060.7054 20146.7606 104.0330 0.0000 30914.4074 -117545.8780 300.5717 -148460.2854 -117504.7459 300.5717 -33.4329 -22.4676 497169.3484 -33.4329 -22.4676
ENERGY: 36000 1624.9143 2372.4431 3230.2515 0.0000 -176109.1618 20253.1477 151.3907 0.0000 31112.9834 -117364.0312 302.5024 -148477.0145 -117324.2608 300.5817 -15.7759 14.5513 496884.7302 2.7984 2.5320
ENERGY: 37000 1643.9860 2437.2203 3234.7031 0.0000 -175958.7323 20177.8660 164.0851 0.0000 31039.4095 -117261.4622 301.7870 -148300.8718 -117214.7318 300.5569 49.6340 17.2618 497626.4812 13.4831 13.3459
ENERGY: 38000 1690.2358 2456.3666 3244.2225 0.0000 -175799.5348 20064.3679 168.4278 0.0000 31211.3543 -116964.5599 303.4588 -148175.9142 -116918.9959 301.8861 -28.5237 -70.5706 497386.9821 -3.2444 -2.9365
ENERGY: 39000 1658.2436 2435.6123 3195.9020 0.0000 -175764.5914 20089.9118 152.3009 0.0000 30944.2838 -117288.3370 300.8621 -148232.6208 -117235.3167 301.3034 -30.2789 -20.5943 497852.1584 14.5930 14.4954
ENERGY: 40000 1599.5542 2419.2006 3254.8616 0.0000 -176317.6770 20192.8379 176.4268 0.0000 30723.4448 -117951.3512 298.7150 -148674.7959 -117902.9040 298.7971 120.5489 103.5283 497693.4523 12.3029 12.5099
TCL: Setting parameter constraintScaling to 0.0390625
TCL: Running for 5000 steps
ETITLE: TS BOND ANGLE DIHED IMPRP ELECT VDW BOUNDARY MISC KINETIC TOTAL TEMP POTENTIAL TOTAL3 TEMPAVG PRESSURE GPRESSURE VOLUME PRESSAVG GPRESSAVG
ENERGY: 40000 1599.5542 2419.2006 3254.8616 0.0000 -176317.6770 20192.8379 88.2134 0.0000 30721.3734 -118041.6360 298.6948 -148763.0094 -117997.7963 298.6948 100.2989 82.3972 497693.4523 100.2989 82.3972
ENERGY: 41000 1710.1583 2415.5514 3225.3423 0.0000 -176097.5479 20154.4334 109.7135 0.0000 30777.8516 -117704.4974 299.2440 -148482.3490 -117668.1133 299.0573 -74.2142 -50.1666 498805.7761 3.5733 3.0910
ENERGY: 42000 1566.4441 2409.0894 3178.4107 0.0000 -175792.8532 20047.0319 118.0955 0.0000 30840.8530 -117632.9287 299.8565 -148473.7817 -117591.4668 299.5245 -5.6814 7.9294 497157.5583 -1.8432 -2.3414
ENERGY: 43000 1625.7906 2412.0304 3213.0304 0.0000 -175480.7056 19971.4457 112.1375 0.0000 30695.4292 -117450.8419 298.4426 -148146.2711 -117417.1467 300.0000 37.9379 128.7388 498213.1459 3.7048 3.9628
ENERGY: 44000 1622.8091 2451.9483 3224.3278 0.0000 -175899.1821 20091.8979 116.4544 0.0000 30843.1085 -117548.6360 299.8784 -148391.7446 -117496.8236 300.3866 -68.0367 -62.4764 497530.4422 -3.3802 -3.4633
ENERGY: 45000 1596.8447 2378.0245 3203.3267 0.0000 -175757.3670 20115.7562 129.2681 0.0000 30627.9456 -117706.2011 297.7865 -148334.1467 -117652.6201 299.4387 24.0377 27.9272 497367.4589 0.2307 0.3029
TCL: Setting parameter constraintScaling to 0.01953125
TCL: Running for 5000 steps
ETITLE: TS BOND ANGLE DIHED IMPRP ELECT VDW BOUNDARY MISC KINETIC TOTAL TEMP POTENTIAL TOTAL3 TEMPAVG PRESSURE GPRESSURE VOLUME PRESSAVG GPRESSAVG
ENERGY: 45000 1596.8447 2378.0245 3203.3267 0.0000 -175757.3670 20115.7562 64.6341 0.0000 30625.8921 -117772.8886 297.7665 -148398.7808 -117730.4452 297.7665 25.3320 32.5449 497367.4589 25.3320 32.5449
ENERGY: 46000 1678.3761 2409.8580 3198.0256 0.0000 -175648.0225 19976.8130 81.0500 0.0000 30735.3034 -117568.5963 298.8303 -148303.8997 -117535.6203 299.5450 -151.6933 -111.0065 498091.1112 4.0177 3.5835
ENERGY: 47000 1623.3988 2425.9079 3209.3732 0.0000 -175576.0846 20044.9806 79.5219 0.0000 30770.7784 -117422.1239 299.1752 -148192.9023 -117383.9947 299.7814 -128.9781 11.4155 498241.7353 -1.9855 -2.1216
ENERGY: 48000 1621.3527 2384.5599 3243.0688 0.0000 -175977.3613 20198.2524 87.3343 0.0000 30825.4836 -117617.3096 299.7071 -148442.7932 -117568.6082 299.6443 -24.9859 45.2093 498529.5672 -9.2866 -8.9611
ENERGY: 49000 1631.3123 2386.9552 3195.9303 0.0000 -175774.5365 20014.0656 95.1682 0.0000 30785.8662 -117665.2388 299.3219 -148451.1049 -117626.3089 298.9760 -75.7341 15.7706 498394.2162 0.9873 0.7767
ENERGY: 50000 1649.3730 2454.2141 3179.7068 0.0000 -175487.4039 20004.1845 91.2670 0.0000 30793.1401 -117315.5183 299.3926 -148108.6584 -117260.9732 300.2905 -65.2843 -7.1312 497881.9551 8.3203 7.9493
TCL: Setting parameter constraintScaling to 0
TCL: Running for 5000 steps
ETITLE: TS BOND ANGLE DIHED IMPRP ELECT VDW BOUNDARY MISC KINETIC TOTAL TEMP POTENTIAL TOTAL3 TEMPAVG PRESSURE GPRESSURE VOLUME PRESSAVG GPRESSAVG
ENERGY: 50000 1649.3730 2454.2141 3179.7068 0.0000 -175487.4039 20004.1845 0.0000 0.0000 30791.0870 -117408.8384 299.3726 -148199.9254 -117363.3581 299.3726 -72.4856 -19.4387 497881.9551 -72.4856 -19.4387
ENERGY: 51000 1621.0045 2363.0687 3219.3274 0.0000 -175919.0525 20094.6457 0.0000 0.0000 30682.4916 -117938.5146 298.3168 -148621.0062 -117899.2021 299.6069 28.5011 38.3638 496876.6945 -3.8943 -4.1752
ENERGY: 52000 1694.4154 2451.0918 3190.8215 0.0000 -176230.9506 20199.7461 0.0000 0.0000 30926.4200 -117768.4558 300.6885 -148694.8758 -117712.9523 298.7431 -92.3416 18.1036 496990.1997 -2.5428 -2.5899
ENERGY: 53000 1616.7124 2425.4709 3179.0366 0.0000 -175787.9180 20099.8905 0.0000 0.0000 30819.0239 -117647.7837 299.6443 -148466.8076 -117612.3150 299.9644 -91.1557 23.2071 498438.0652 11.3151 11.2846
ENERGY: 54000 1663.5598 2456.0175 3210.9779 0.0000 -175745.1352 19837.0745 0.0000 0.0000 30971.5040 -117606.0015 301.1268 -148577.5055 -117553.6610 300.1438 -43.7063 -2.8104 496184.7370 -9.0055 -9.1374
ENERGY: 55000 1658.0080 2349.5529 3212.6774 0.0000 -175934.8029 20087.2623 0.0000 0.0000 30748.7877 -117878.5147 298.9614 -148627.3023 -117826.9171 299.9683 74.6630 1.0493 496399.5583 2.1916 1.4516
