Info: SIMULATION PARAMETERS:
Info: TIMESTEP               1
Info: NUMBER OF STEPS        0
Info: STEPS PER CYCLE        10
Info: PERIODIC CELL BASIS 1  72.449 0 0
Info: PERIODIC CELL BASIS 2  0 93.247 0
Info: PERIODIC CELL BASIS 3  0 0 79.185
Info: PERIODIC CELL CENTER   -0.248 -0.156 -0.047
Info: WRAPPING WATERS AROUND PERIODIC BOUNDARIES ON OUTPUT.
Info: WRAPPING ALL CLUSTERS AROUND PERIODIC BOUNDARIES ON OUTPUT.
Info: FIRST LDB TIMESTEP     50
Info: LAST LDB TIMESTEP     -1
Info: HOM BACKGROUND SCALING 1
Info: PME BACKGROUND SCALING 1
Info: MIN ATOMS PER PATCH    40
Info: VELOCITY FILE          ../replicas/rep101/equilibration/eq1.vel
Info: CENTER OF MASS MOVING INITIALLY? NO
Info: DIELECTRIC             1
Info: EXCLUDE                SCALED ONE-FOUR
Info: 1-4 ELECTROSTATICS SCALED BY 0.833333
Info: MODIFIED 1-4 VDW PARAMETERS WILL BE USED
Info: DCD FILENAME           ../replicas/rep101/equilibration/eq2.dcd
Info: DCD FREQUENCY          5000
Info: DCD FIRST STEP         5000
Info: DCD FILE WILL CONTAIN UNIT CELL DATA
Info: XST FILENAME           ../replicas/rep101/equilibration/eq2.xst
Info: XST FREQUENCY          5000
Info: NO VELOCITY DCD OUTPUT
Info: NO FORCE DCD OUTPUT
Info: OUTPUT FILENAME        ../replicas/rep101/equilibration/eq2
Info: RESTART FILENAME       ../replicas/rep101/equilibration/eq2.restart
Info: RESTART FREQUENCY      5000
Info: BINARY RESTART FILES WILL BE USED
Info: SWITCHING ACTIVE
Info: SWITCHING ON           10
Info: SWITCHING OFF          12
Info: PAIRLIST DISTANCE      13.5
Info: PAIRLIST SHRINK RATE   0.01
Info: PAIRLIST GROW RATE     0.01
Info: PAIRLIST TRIGGER       0.3
Info: PAIRLISTS PER CYCLE    2
Info: PAIRLISTS ENABLED
Info: MARGIN                 0.48
Info: HYDROGEN GROUP CUTOFF  2.5
Info: PATCH DIMENSION        16.48
Info: ENERGY OUTPUT STEPS    500
Info: CROSSTERM ENERGY INCLUDED IN DIHEDRAL
Info: TIMING OUTPUT STEPS    5000
Info: PRESSURE OUTPUT STEPS  500
Info: HARMONIC CONSTRAINTS ACTIVE
Info: HARMONIC CONS EXP      2
Info: HARMONIC CONS SCALING  10
Info: LANGEVIN DYNAMICS ACTIVE
Info: LANGEVIN TEMPERATURE   300
Info: LANGEVIN USING BBK INTEGRATOR
Info: LANGEVIN DAMPING COEFFICIENT IS 5 INVERSE PS
Info: LANGEVIN DYNAMICS NOT APPLIED TO HYDROGENS
Info: BERENDSEN PRESSURE COUPLING ACTIVE
Info:     TARGET PRESSURE IS 1 BAR
Info:     COMPRESSIBILITY ESTIMATE IS 4.57e-05 BAR^(-1)
Info:     RELAXATION TIME IS 100 FS
Info:     APPLIED EVERY 2 STEPS
Info:     PRESSURE CONTROL IS GROUP-BASED
Info:       CELL FLUCTUATION IS ISOTROPIC
Info: PARTICLE MESH EWALD (PME) ACTIVE
Info: PME TOLERANCE               1e-06
Info: PME EWALD COEFFICIENT       0.257952
Info: PME INTERPOLATION ORDER     4
Info: PME GRID DIMENSIONS         80 96 80
Info: PME MAXIMUM GRID SPACING    1
Info: FULL ELECTROSTATIC EVALUATION FREQUENCY      2
Info: USING VERLET I (r-RESPA) MTS SCHEME.
Info: C1 SPLITTING OF LONG RANGE ELECTROSTATICS
Info: PLACING ATOMS IN PATCHES BY HYDROGEN GROUPS
Info: RIGID BONDS TO HYDROGEN : WATER
Info:         ERROR TOLERANCE : 1e-05
Info:          MAX ITERATIONS : 100
Info: RIGID WATER USING SETTLE ALGORITHM
Info: RANDOM NUMBER SEED     1503703114
Info: USE HYDROGEN BONDS?    NO
Info: Using AMBER format force field!
Info: AMBER PARM FILE        ../build/complex.top
Info: COORDINATE PDB         ../replicas/rep101/equilibration/eq1.coor
Info: Exclusions in PARM file will be ignored!
Info: SCNB (VDW SCALING)     2
Info: USING ARITHMETIC MEAN TO COMBINE L-J SIGMA PARAMETERS
Info: SUMMARY OF PARAMETERS:
Info: 71 BONDS
Info: 145 ANGLES
Info: 76 DIHEDRAL
Info: 0 IMPROPER
Info: 0 CROSSTERM
Info: 0 VDW
Info: 190 VDW_PAIRS
Info: 0 NBTHOLE_PAIRS
Info: STRUCTURE SUMMARY:
Info: 49394 ATOMS
Info: 49448 BONDS
Info: 8698 ANGLES
Info: 18780 DIHEDRALS
Info: 0 IMPROPERS
Info: 0 CROSSTERMS
Info: 0 EXCLUSIONS
Info: 2336 CONSTRAINTS
Info: 44667 RIGID BONDS
Info: 103515 DEGREES OF FREEDOM
Info: 17225 HYDROGEN GROUPS
Info: 4 ATOMS IN LARGEST HYDROGEN GROUP
Info: 17225 MIGRATION GROUPS
Info: 4 ATOMS IN LARGEST MIGRATION GROUP
Info: TOTAL MASS = 301478 amu
Info: TOTAL CHARGE = 1.00115e-05 e
Info: MASS DENSITY = 0.935846 g/cm^3
Info: ATOM DENSITY = 0.0923345 atoms/A^3
Info: ADDED 70656 IMPLICIT EXCLUSIONS
Info: NONBONDED TABLE R-SQUARED SPACING: 0.0625
Info: NONBONDED TABLE SIZE: 769 POINTS
Info: REMOVING COM VELOCITY -0.00534239 0.0213905 -0.00149218
TCL: Running for 5000 steps
ETITLE: TS BOND ANGLE DIHED IMPRP ELECT VDW BOUNDARY MISC KINETIC TOTAL TEMP POTENTIAL TOTAL3 TEMPAVG PRESSURE GPRESSURE VOLUME PRESSAVG GPRESSAVG
ENERGY: 0 390.3839 1197.1747 2910.1662 0.0000 -212645.1072 29546.4308 0.0000 0.0000 10092.7902 -168508.1613 98.1292 -178600.9516 -168498.4791 98.1292 -2316.7493 -2416.1165 534946.2959 -2316.7493 -2416.1165
ENERGY: 1000 1281.3988 1972.9350 3086.8077 0.0000 -193671.9731 26514.4004 758.6954 0.0000 24094.2485 -135963.4873 234.2613 -160057.7357 -135930.1903 218.3907 13.7575 5.9028 522228.4859 -11.8479 -12.0881
ENERGY: 2000 1419.2242 2095.8539 3132.6971 0.0000 -184302.2357 23374.2930 799.0703 0.0000 27931.1363 -125549.9609 271.5662 -153481.0971 -125509.3984 263.9426 -53.5362 -15.4755 515062.9188 -39.0201 -38.9840
ENERGY: 3000 1540.4931 2203.2213 3114.4527 0.0000 -179509.4470 21788.5929 806.2078 0.0000 29364.3897 -120692.0895 285.5013 -150056.4792 -120645.0020 283.6553 -30.9198 -5.0768 511244.5803 -8.3624 -8.2832
ENERGY: 4000 1589.6199 2245.5758 3123.2643 0.0000 -176831.5082 20660.0539 788.0662 0.0000 30233.7285 -118191.1995 293.9536 -148424.9280 -118160.1585 293.3222 0.2949 8.7238 508313.9711 -6.4809 -6.8774
ENERGY: 5000 1595.1210 2246.4847 3120.0989 0.0000 -176300.6906 20686.8207 810.5744 0.0000 30725.4401 -117116.1509 298.7344 -147841.5910 -117082.6504 296.6201 -70.3783 -27.6826 505064.6425 -30.3328 -30.2515
TCL: Setting parameter constraintScaling to 5.0
TCL: Running for 5000 steps
ETITLE: TS BOND ANGLE DIHED IMPRP ELECT VDW BOUNDARY MISC KINETIC TOTAL TEMP POTENTIAL TOTAL3 TEMPAVG PRESSURE GPRESSURE VOLUME PRESSAVG GPRESSAVG
ENERGY: 5000 1595.1210 2246.4847 3120.0989 0.0000 -176300.6906 20686.8207 405.2872 0.0000 30723.3795 -117523.4987 298.7143 -148246.8782 -117482.5557 298.7143 -43.0037 -10.2606 505064.6425 -43.0037 -10.2606
ENERGY: 6000 1556.3161 2363.1146 3162.8767 0.0000 -175975.0465 20334.3467 628.2168 0.0000 30587.7104 -117342.4652 297.3953 -147930.1755 -117291.8400 297.3294 -46.2724 -36.6496 503844.1758 -3.1849 -3.3667
ENERGY: 7000 1615.5603 2291.1447 3174.9223 0.0000 -175634.0531 20315.3870 659.7020 0.0000 30879.1265 -116698.2103 300.2286 -147577.3368 -116654.1913 299.2833 61.2132 28.8466 502476.5729 -17.8882 -18.0355
ENERGY: 8000 1590.4827 2253.8882 3192.2905 0.0000 -175470.5563 20042.7465 642.5900 0.0000 30695.0358 -117053.5225 298.4388 -147748.5584 -117000.5502 299.0757 37.9588 5.6502 501633.3467 7.5528 7.7783
ENERGY: 9000 1592.3493 2346.7040 3154.5326 0.0000 -175381.9802 20085.2608 650.7014 0.0000 30957.6693 -116594.7628 300.9923 -147552.4321 -116545.8711 299.0963 -74.4421 -43.8233 501766.3979 -4.0831 -3.8750
ENERGY: 10000 1621.8479 2256.6368 3191.1104 0.0000 -175468.8383 20086.6301 635.5772 0.0000 30669.6946 -117007.3414 298.1924 -147677.0360 -116961.6367 299.7526 -15.3107 -5.0968 501481.6616 0.7896 0.7044
TCL: Setting parameter constraintScaling to 2.5
TCL: Running for 5000 steps
ETITLE: TS BOND ANGLE DIHED IMPRP ELECT VDW BOUNDARY MISC KINETIC TOTAL TEMP POTENTIAL TOTAL3 TEMPAVG PRESSURE GPRESSURE VOLUME PRESSAVG GPRESSAVG
ENERGY: 10000 1621.8479 2256.6368 3191.1104 0.0000 -175468.8383 20086.6301 317.7886 0.0000 30667.6871 -117327.1376 298.1729 -147994.8247 -117283.3874 298.1729 -66.7457 -57.0225 501481.6616 -66.7457 -57.0225
ENERGY: 11000 1591.8371 2345.3451 3192.9361 0.0000 -175563.7020 20267.1400 514.5298 0.0000 30813.0279 -116838.8861 299.5860 -147651.9139 -116778.7939 300.2478 -79.8734 20.0768 501656.5830 2.4328 2.1163
ENERGY: 12000 1589.9131 2263.2737 3177.7232 0.0000 -176003.7610 20134.1742 497.6890 0.0000 30946.6216 -117394.3664 300.8849 -148340.9880 -117345.5077 299.0711 -156.3709 35.5800 500759.1933 3.7430 3.5632
ENERGY: 13000 1617.6483 2334.4410 3165.3397 0.0000 -176004.7618 20207.6933 514.7108 0.0000 30645.5367 -117519.3921 297.9575 -148164.9288 -117470.3457 298.4299 -91.3110 -0.3978 500552.0902 3.1280 2.8359
ENERGY: 14000 1634.7260 2356.5064 3215.5043 0.0000 -176399.1879 20397.0697 515.8550 0.0000 30980.9183 -117298.6082 301.2183 -148279.5265 -117261.4579 297.6013 -51.2086 19.1555 500609.3913 10.5483 10.6264
ENERGY: 15000 1567.3449 2373.3464 3210.9788 0.0000 -175457.4400 20081.1731 517.5421 0.0000 30788.3879 -116918.6668 299.3464 -147707.0548 -116870.0496 300.6299 42.9628 48.3325 500321.5443 7.9890 7.2832
TCL: Setting parameter constraintScaling to 1.25
TCL: Running for 5000 steps
ETITLE: TS BOND ANGLE DIHED IMPRP ELECT VDW BOUNDARY MISC KINETIC TOTAL TEMP POTENTIAL TOTAL3 TEMPAVG PRESSURE GPRESSURE VOLUME PRESSAVG GPRESSAVG
ENERGY: 15000 1567.3449 2373.3464 3210.9788 0.0000 -175457.4400 20081.1731 258.7710 0.0000 30786.3472 -117179.4786 299.3266 -147965.8258 -117133.6805 299.3266 2.6023 9.3887 500321.5443 2.6023 9.3887
ENERGY: 16000 1600.0839 2383.9996 3208.3041 0.0000 -176015.9999 20171.3295 407.4335 0.0000 30695.8309 -117549.0184 298.4465 -148244.8493 -117513.5651 299.1369 -16.4354 -16.7631 500692.0582 2.6960 3.2172
ENERGY: 17000 1659.2722 2390.8628 3172.1009 0.0000 -176120.4976 20163.6905 393.1228 0.0000 30938.0279 -117403.4205 300.8013 -148341.4484 -117361.9126 299.7050 -30.7771 -56.2385 500010.6500 -5.5977 -5.3985
ENERGY: 18000 1619.8065 2321.6325 3192.4598 0.0000 -176628.0444 20431.5257 399.0045 0.0000 30573.6915 -118089.9239 297.2590 -148663.6154 -118039.2978 297.5900 68.8605 69.0195 497495.1152 -5.3709 -5.9406
ENERGY: 19000 1605.6624 2364.0738 3184.8265 0.0000 -176162.0387 20174.4784 394.5289 0.0000 30837.7155 -117600.7534 299.8260 -148438.4689 -117558.0196 299.1609 -89.2680 -43.0413 497146.6258 -0.3096 -0.2380
ENERGY: 20000 1527.1074 2378.0075 3189.2005 0.0000 -176057.1846 20229.4590 418.1737 0.0000 31047.7858 -117267.4506 301.8685 -148315.2365 -117223.1043 299.0019 29.3905 109.2992 497653.3747 -8.0288 -8.4162
TCL: Setting parameter constraintScaling to 0.625
TCL: Running for 5000 steps
ETITLE: TS BOND ANGLE DIHED IMPRP ELECT VDW BOUNDARY MISC KINETIC TOTAL TEMP POTENTIAL TOTAL3 TEMPAVG PRESSURE GPRESSURE VOLUME PRESSAVG GPRESSAVG
ENERGY: 20000 1527.1074 2378.0075 3189.2005 0.0000 -176057.1846 20229.4590 209.0869 0.0000 31045.7169 -117478.6064 301.8483 -148524.3233 -117434.6913 301.8483 -3.7568 78.9576 497653.3747 -3.7568 78.9576
ENERGY: 21000 1599.5050 2377.5567 3192.2720 0.0000 -176000.3044 20196.9542 316.1310 0.0000 30817.6103 -117500.2751 299.6305 -148317.8855 -117447.7030 299.4154 -77.2675 25.9721 497890.5463 -17.9183 -17.7330
ENERGY: 22000 1650.7321 2385.9563 3171.5064 0.0000 -175587.5601 20089.4591 307.2289 0.0000 30894.6251 -117088.0523 300.3793 -147982.6774 -117043.4753 299.5113 -67.2217 35.1535 499833.3822 3.1376 4.0884
ENERGY: 23000 1633.6082 2382.4607 3212.6632 0.0000 -175916.3636 20310.8687 327.1375 0.0000 30997.1594 -117052.4660 301.3762 -148049.6254 -116998.2711 300.4040 -42.1689 -32.4481 499904.4391 4.3949 4.7491
ENERGY: 24000 1680.4573 2378.6227 3204.7864 0.0000 -175465.2687 19855.6000 316.8833 0.0000 30786.6612 -117242.2577 299.3296 -148028.9189 -117203.1351 300.0250 -106.1086 -59.0904 498905.1924 -7.6866 -7.0008
ENERGY: 25000 1600.9500 2395.8190 3202.6144 0.0000 -175706.8314 20101.2863 304.5645 0.0000 30807.5189 -117294.0783 299.5324 -148101.5972 -117243.9936 300.2657 93.3101 110.3108 497543.4284 -11.4279 -11.9319
TCL: Setting parameter constraintScaling to 0.3125
TCL: Running for 5000 steps
ETITLE: TS BOND ANGLE DIHED IMPRP ELECT VDW BOUNDARY MISC KINETIC TOTAL TEMP POTENTIAL TOTAL3 TEMPAVG PRESSURE GPRESSURE VOLUME PRESSAVG GPRESSAVG
ENERGY: 25000 1600.9500 2395.8190 3202.6144 0.0000 -175706.8314 20101.2863 152.2823 0.0000 30805.4799 -117448.3996 299.5126 -148253.8795 -117404.7432 299.5126 88.1949 103.1412 497543.4284 88.1949 103.1412
ENERGY: 26000 1677.6298 2343.9324 3255.7561 0.0000 -175753.9369 20012.3438 250.1931 0.0000 30690.5592 -117523.5225 298.3952 -148214.0818 -117480.8628 299.3957 -94.6303 -77.0683 497586.8455 3.9751 4.1299
ENERGY: 27000 1715.3259 2466.9159 3189.7500 0.0000 -175483.2231 20007.3438 233.8479 0.0000 30859.6100 -117010.4297 300.0389 -147870.0396 -116960.0555 300.9575 7.4178 23.6679 497647.2865 1.4305 0.9922
ENERGY: 28000 1629.3879 2358.4328 3217.6452 0.0000 -175753.7603 20175.9041 243.0091 0.0000 31001.2203 -117128.1610 301.4157 -148129.3813 -117082.5177 299.9994 -63.7749 -16.0817 499676.8336 20.0076 19.5508
ENERGY: 29000 1613.1933 2372.9093 3194.1752 0.0000 -175379.0972 19821.6652 253.9826 0.0000 30832.3337 -117290.8378 299.7737 -148123.1716 -117255.7474 299.8330 -13.1244 -8.5136 498970.0761 3.7719 3.9136
ENERGY: 30000 1626.1995 2463.2964 3209.7086 0.0000 -175864.5732 19951.9005 252.0631 0.0000 30653.8029 -117707.6023 298.0379 -148361.4052 -117660.6714 299.2139 55.0983 56.5900 496670.4150 -11.0500 -11.2634
TCL: Setting parameter constraintScaling to 0.15625
TCL: Running for 5000 steps
ETITLE: TS BOND ANGLE DIHED IMPRP ELECT VDW BOUNDARY MISC KINETIC TOTAL TEMP POTENTIAL TOTAL3 TEMPAVG PRESSURE GPRESSURE VOLUME PRESSAVG GPRESSAVG
ENERGY: 30000 1626.1995 2463.2964 3209.7086 0.0000 -175864.5732 19951.9005 126.0315 0.0000 30651.7842 -117835.6526 298.0182 -148487.4367 -117790.8019 298.0182 8.2182 0.9428 496670.4150 8.2182 0.9428
ENERGY: 31000 1657.1365 2408.0111 3219.1070 0.0000 -176009.2994 20120.3404 182.7303 0.0000 30718.6252 -117703.3489 298.6681 -148421.9741 -117654.5155 299.4349 -81.0393 -5.0807 497012.4436 2.7335 3.0382
ENERGY: 32000 1607.2078 2436.9715 3247.8195 0.0000 -175568.5160 19954.2077 195.9363 0.0000 30788.4739 -117337.8993 299.3472 -148126.3732 -117303.9629 299.8674 67.6009 44.2056 498147.2484 8.9795 8.8872
ENERGY: 33000 1667.4990 2412.9791 3230.8224 0.0000 -175869.3442 20094.0254 205.3263 0.0000 30771.8345 -117486.8575 299.1855 -148258.6920 -117446.6885 299.6659 -42.4655 -30.3697 497510.1331 -6.4438 -6.5394
ENERGY: 34000 1654.6187 2412.4857 3210.3474 0.0000 -176227.8746 20185.4739 218.5720 0.0000 30427.0175 -118119.3594 295.8329 -148546.3769 -118079.2826 298.3742 -11.2056 69.5599 498218.8053 -2.1057 -2.3438
ENERGY: 35000 1663.8961 2420.4694 3181.7663 0.0000 -176322.4116 20277.0165 204.7933 0.0000 30770.7202 -117803.7499 299.1746 -148574.4700 -117760.2632 298.3031 -7.9728 32.2436 499169.3714 6.1293 6.3921
TCL: Setting parameter constraintScaling to 0.078125
TCL: Running for 5000 steps
ETITLE: TS BOND ANGLE DIHED IMPRP ELECT VDW BOUNDARY MISC KINETIC TOTAL TEMP POTENTIAL TOTAL3 TEMPAVG PRESSURE GPRESSURE VOLUME PRESSAVG GPRESSAVG
ENERGY: 35000 1663.8961 2420.4694 3181.7663 0.0000 -176322.4116 20277.0165 102.3966 0.0000 30768.6353 -117908.2313 299.1544 -148676.8667 -117866.1420 299.1544 -27.1743 12.3519 499169.3714 -27.1743 12.3519
ENERGY: 36000 1613.8092 2393.3963 3211.3075 0.0000 -176041.8766 20148.5657 151.3160 0.0000 30632.8496 -117890.6322 297.8342 -148523.4818 -117842.2343 299.1267 -6.2661 -46.0904 498420.2628 0.7213 -0.1318
ENERGY: 37000 1637.8195 2360.9649 3228.0179 0.0000 -175611.7321 19991.3539 147.5867 0.0000 30506.7215 -117739.2677 296.6078 -148245.9892 -117701.3258 300.2119 38.6661 19.1698 498063.3906 -4.0232 -3.5786
ENERGY: 38000 1631.7016 2458.2339 3235.5522 0.0000 -176114.6471 20193.1474 161.9958 0.0000 30571.3734 -117862.6428 297.2364 -148434.0162 -117828.0604 298.5557 -159.2865 -67.5492 497989.9557 4.1559 3.5057
ENERGY: 39000 1636.8937 2319.7086 3225.3522 0.0000 -175977.8816 19998.0327 161.7726 0.0000 30406.0624 -118230.0594 295.6292 -148636.1217 -118186.9039 297.7822 -135.8418 -15.1741 497795.9878 -8.1098 -8.0118
ENERGY: 40000 1634.5707 2407.2274 3199.0589 0.0000 -176060.9141 20016.7451 171.5241 0.0000 30909.7982 -117721.9898 300.5268 -148631.7880 -117671.4428 299.5791 -33.2363 12.2950 497761.7721 2.2800 2.4794
TCL: Setting parameter constraintScaling to 0.0390625
TCL: Running for 5000 steps
ETITLE: TS BOND ANGLE DIHED IMPRP ELECT VDW BOUNDARY MISC KINETIC TOTAL TEMP POTENTIAL TOTAL3 TEMPAVG PRESSURE GPRESSURE VOLUME PRESSAVG GPRESSAVG
ENERGY: 40000 1634.5707 2407.2274 3199.0589 0.0000 -176060.9141 20016.7451 85.7620 0.0000 30907.7497 -117809.8004 300.5069 -148717.5500 -117766.9394 300.5069 -45.1711 2.3191 497761.7721 -45.1711 2.3191
ENERGY: 41000 1655.1210 2395.0451 3199.3505 0.0000 -175770.1078 20046.6010 113.7436 0.0000 30879.3594 -117480.8873 300.2309 -148360.2467 -117438.5507 300.0597 -70.9905 -72.3874 497891.7999 1.1950 0.6369
ENERGY: 42000 1664.3735 2355.9589 3184.2080 0.0000 -176046.8208 20167.8380 120.3671 0.0000 30866.2364 -117687.8389 300.1033 -148554.0753 -117652.2377 298.6280 -83.1778 -57.7730 498076.5616 6.8485 6.7155
ENERGY: 43000 1623.3164 2407.5120 3219.6149 0.0000 -176283.1061 20184.0995 116.7675 0.0000 30883.6800 -117848.1158 300.2729 -148731.7958 -117802.8794 299.9142 -31.2998 4.0890 497140.3788 -2.8515 -2.3001
ENERGY: 44000 1642.8485 2421.9724 3208.3657 0.0000 -175946.8408 20031.3273 120.5579 0.0000 30699.9747 -117821.7943 298.4868 -148521.7690 -117776.1975 298.4770 -24.0819 78.0975 497216.0126 -0.3520 0.5665
ENERGY: 45000 1593.2633 2371.8788 3222.8868 0.0000 -176001.0939 19966.6435 120.6310 0.0000 30683.7605 -118042.0301 298.3291 -148725.7905 -117993.9634 298.3055 -181.9066 -77.1811 496073.9058 -10.4560 -10.0809
TCL: Setting parameter constraintScaling to 0.01953125
TCL: Running for 5000 steps
ETITLE: TS BOND ANGLE DIHED IMPRP ELECT VDW BOUNDARY MISC KINETIC TOTAL TEMP POTENTIAL TOTAL3 TEMPAVG PRESSURE GPRESSURE VOLUME PRESSAVG GPRESSAVG
ENERGY: 45000 1593.2633 2371.8788 3222.8868 0.0000 -176001.0939 19966.6435 60.3155 0.0000 30681.7107 -118104.3953 298.3092 -148786.1060 -118062.3290 298.3092 -192.6676 -88.1149 496073.9058 -192.6676 -88.1149
ENERGY: 46000 1653.5104 2436.6804 3228.6923 0.0000 -175985.4656 20128.8062 81.4564 0.0000 30835.7255 -117620.5944 299.8067 -148456.3199 -117586.6006 299.7402 -45.1999 26.4425 496368.0509 -0.0568 0.2910
ENERGY: 47000 1655.3126 2460.7156 3194.6760 0.0000 -175952.1318 20071.2692 80.7322 0.0000 30884.1196 -117605.3066 300.2772 -148489.4261 -117551.6367 299.8838 -52.7274 49.1397 497627.0294 2.2721 2.5034
ENERGY: 48000 1609.5536 2434.4583 3182.3065 0.0000 -175511.4694 19875.5155 76.2685 0.0000 30938.8401 -117394.5269 300.8092 -148333.3670 -117354.1921 300.9758 -3.4008 71.4926 496963.2283 10.4268 10.2006
ENERGY: 49000 1704.6429 2362.8088 3207.0488 0.0000 -176043.5192 20209.1278 86.2761 0.0000 30782.2471 -117691.3678 299.2867 -148473.6149 -117652.0028 299.1138 20.0746 55.9158 497452.3467 1.9739 1.9598
ENERGY: 50000 1654.2983 2422.0194 3204.4356 0.0000 -175901.4292 19954.6270 94.6458 0.0000 30903.9527 -117667.4504 300.4700 -148571.4030 -117618.1350 299.1436 -43.4903 2.8904 497210.5259 -1.9189 -1.4340
TCL: Setting parameter constraintScaling to 0
TCL: Running for 5000 steps
ETITLE: TS BOND ANGLE DIHED IMPRP ELECT VDW BOUNDARY MISC KINETIC TOTAL TEMP POTENTIAL TOTAL3 TEMPAVG PRESSURE GPRESSURE VOLUME PRESSAVG GPRESSAVG
ENERGY: 50000 1654.2983 2422.0194 3204.4356 0.0000 -175901.4292 19954.6270 0.0000 0.0000 30901.8810 -117764.1679 300.4499 -148666.0489 -117724.1928 300.4499 -50.8679 -12.2792 497210.5259 -50.8679 -12.2792
ENERGY: 51000 1634.7362 2421.3168 3203.6329 0.0000 -176122.4931 20126.3602 0.0000 0.0000 30777.9854 -117958.4616 299.2453 -148736.4470 -117918.9200 298.8438 -52.5753 31.8981 496124.6438 -15.3667 -15.9713
ENERGY: 52000 1601.8110 2391.1379 3230.4914 0.0000 -175855.1723 19972.2295 0.0000 0.0000 30973.1661 -117686.3364 301.1429 -148659.5025 -117637.5399 299.8142 7.3497 5.0027 497136.3375 0.8323 0.9799
ENERGY: 53000 1600.8758 2435.6368 3200.8336 0.0000 -175764.0478 20001.9164 0.0000 0.0000 30771.4780 -117753.3072 299.1820 -148524.7852 -117699.7203 298.8620 -57.5389 -8.2217 495489.5624 -8.6024 -9.2265
ENERGY: 54000 1644.2253 2435.5865 3206.5174 0.0000 -175705.6907 19812.7883 0.0000 0.0000 30763.2612 -117843.3120 299.1021 -148606.5731 -117794.0917 298.8477 -96.2077 -42.4437 495142.1352 -3.2569 -3.2459
ENERGY: 55000 1634.3405 2453.6033 3207.5862 0.0000 -176076.3433 20105.5870 0.0000 0.0000 30678.6694 -117996.5569 298.2796 -148675.2263 -117943.0787 300.3241 -125.0732 -71.5765 497042.7026 2.4955 2.3121
