Info: SIMULATION PARAMETERS:
Info: TIMESTEP               1
Info: NUMBER OF STEPS        0
Info: STEPS PER CYCLE        10
Info: PERIODIC CELL BASIS 1  72.449 0 0
Info: PERIODIC CELL BASIS 2  0 93.247 0
Info: PERIODIC CELL BASIS 3  0 0 79.185
Info: PERIODIC CELL CENTER   -0.248 -0.156 -0.047
Info: WRAPPING WATERS AROUND PERIODIC BOUNDARIES ON OUTPUT.
Info: WRAPPING ALL CLUSTERS AROUND PERIODIC BOUNDARIES ON OUTPUT.
Info: FIRST LDB TIMESTEP     50
Info: LAST LDB TIMESTEP     -1
Info: HOM BACKGROUND SCALING 1
Info: PME BACKGROUND SCALING 1
Info: MIN ATOMS PER PATCH    40
Info: VELOCITY FILE          ../replicas/rep85/equilibration/eq1.vel
Info: CENTER OF MASS MOVING INITIALLY? NO
Info: DIELECTRIC             1
Info: EXCLUDE                SCALED ONE-FOUR
Info: 1-4 ELECTROSTATICS SCALED BY 0.833333
Info: MODIFIED 1-4 VDW PARAMETERS WILL BE USED
Info: DCD FILENAME           ../replicas/rep85/equilibration/eq2.dcd
Info: DCD FREQUENCY          5000
Info: DCD FIRST STEP         5000
Info: DCD FILE WILL CONTAIN UNIT CELL DATA
Info: XST FILENAME           ../replicas/rep85/equilibration/eq2.xst
Info: XST FREQUENCY          5000
Info: NO VELOCITY DCD OUTPUT
Info: NO FORCE DCD OUTPUT
Info: OUTPUT FILENAME        ../replicas/rep85/equilibration/eq2
Info: RESTART FILENAME       ../replicas/rep85/equilibration/eq2.restart
Info: RESTART FREQUENCY      5000
Info: BINARY RESTART FILES WILL BE USED
Info: SWITCHING ACTIVE
Info: SWITCHING ON           10
Info: SWITCHING OFF          12
Info: PAIRLIST DISTANCE      13.5
Info: PAIRLIST SHRINK RATE   0.01
Info: PAIRLIST GROW RATE     0.01
Info: PAIRLIST TRIGGER       0.3
Info: PAIRLISTS PER CYCLE    2
Info: PAIRLISTS ENABLED
Info: MARGIN                 0.48
Info: HYDROGEN GROUP CUTOFF  2.5
Info: PATCH DIMENSION        16.48
Info: ENERGY OUTPUT STEPS    500
Info: CROSSTERM ENERGY INCLUDED IN DIHEDRAL
Info: TIMING OUTPUT STEPS    5000
Info: PRESSURE OUTPUT STEPS  500
Info: HARMONIC CONSTRAINTS ACTIVE
Info: HARMONIC CONS EXP      2
Info: HARMONIC CONS SCALING  10
Info: LANGEVIN DYNAMICS ACTIVE
Info: LANGEVIN TEMPERATURE   300
Info: LANGEVIN USING BBK INTEGRATOR
Info: LANGEVIN DAMPING COEFFICIENT IS 5 INVERSE PS
Info: LANGEVIN DYNAMICS NOT APPLIED TO HYDROGENS
Info: BERENDSEN PRESSURE COUPLING ACTIVE
Info:     TARGET PRESSURE IS 1 BAR
Info:     COMPRESSIBILITY ESTIMATE IS 4.57e-05 BAR^(-1)
Info:     RELAXATION TIME IS 100 FS
Info:     APPLIED EVERY 2 STEPS
Info:     PRESSURE CONTROL IS GROUP-BASED
Info:       CELL FLUCTUATION IS ISOTROPIC
Info: PARTICLE MESH EWALD (PME) ACTIVE
Info: PME TOLERANCE               1e-06
Info: PME EWALD COEFFICIENT       0.257952
Info: PME INTERPOLATION ORDER     4
Info: PME GRID DIMENSIONS         80 96 80
Info: PME MAXIMUM GRID SPACING    1
Info: FULL ELECTROSTATIC EVALUATION FREQUENCY      2
Info: USING VERLET I (r-RESPA) MTS SCHEME.
Info: C1 SPLITTING OF LONG RANGE ELECTROSTATICS
Info: PLACING ATOMS IN PATCHES BY HYDROGEN GROUPS
Info: RIGID BONDS TO HYDROGEN : WATER
Info:         ERROR TOLERANCE : 1e-05
Info:          MAX ITERATIONS : 100
Info: RIGID WATER USING SETTLE ALGORITHM
Info: RANDOM NUMBER SEED     1503694161
Info: USE HYDROGEN BONDS?    NO
Info: Using AMBER format force field!
Info: AMBER PARM FILE        ../build/complex.top
Info: COORDINATE PDB         ../replicas/rep85/equilibration/eq1.coor
Info: Exclusions in PARM file will be ignored!
Info: SCNB (VDW SCALING)     2
Info: USING ARITHMETIC MEAN TO COMBINE L-J SIGMA PARAMETERS
Info: SUMMARY OF PARAMETERS:
Info: 71 BONDS
Info: 145 ANGLES
Info: 76 DIHEDRAL
Info: 0 IMPROPER
Info: 0 CROSSTERM
Info: 0 VDW
Info: 190 VDW_PAIRS
Info: 0 NBTHOLE_PAIRS
Info: STRUCTURE SUMMARY:
Info: 49394 ATOMS
Info: 49448 BONDS
Info: 8698 ANGLES
Info: 18780 DIHEDRALS
Info: 0 IMPROPERS
Info: 0 CROSSTERMS
Info: 0 EXCLUSIONS
Info: 2336 CONSTRAINTS
Info: 44667 RIGID BONDS
Info: 103515 DEGREES OF FREEDOM
Info: 17225 HYDROGEN GROUPS
Info: 4 ATOMS IN LARGEST HYDROGEN GROUP
Info: 17225 MIGRATION GROUPS
Info: 4 ATOMS IN LARGEST MIGRATION GROUP
Info: TOTAL MASS = 301478 amu
Info: TOTAL CHARGE = 1.00115e-05 e
Info: MASS DENSITY = 0.935846 g/cm^3
Info: ATOM DENSITY = 0.0923345 atoms/A^3
Info: ADDED 70656 IMPLICIT EXCLUSIONS
Info: NONBONDED TABLE R-SQUARED SPACING: 0.0625
Info: NONBONDED TABLE SIZE: 769 POINTS
Info: REMOVING COM VELOCITY 0.00121465 -0.00568694 0.00642852
TCL: Running for 5000 steps
ETITLE: TS BOND ANGLE DIHED IMPRP ELECT VDW BOUNDARY MISC KINETIC TOTAL TEMP POTENTIAL TOTAL3 TEMPAVG PRESSURE GPRESSURE VOLUME PRESSAVG GPRESSAVG
ENERGY: 0 377.1252 1209.1846 2928.0741 0.0000 -212662.7511 29486.8730 0.0000 0.0000 10108.7082 -168552.7860 98.2840 -178661.4942 -168543.1005 98.2840 -2414.6544 -2518.2636 534946.2959 -2414.6544 -2518.2636
ENERGY: 1000 1239.2379 2015.5466 3125.5317 0.0000 -193607.6110 26453.6748 792.1283 0.0000 24180.1765 -135801.3151 235.0967 -159981.4916 -135777.4627 218.3572 59.9700 -16.6640 522779.9361 -10.3169 -10.9026
ENERGY: 2000 1465.6600 2153.9673 3133.6249 0.0000 -184016.5595 23469.8811 810.9968 0.0000 27820.4767 -125161.9528 270.4903 -152982.4295 -125117.4318 264.9960 -143.2045 1.4657 517627.4141 -25.1436 -24.8148
ENERGY: 3000 1508.7392 2202.0792 3147.3881 0.0000 -179269.1569 21799.6672 826.0809 0.0000 29335.9428 -120449.2595 285.2247 -149785.2023 -120407.5763 284.1508 -43.3386 12.1684 511601.7967 -30.7695 -30.7072
ENERGY: 4000 1577.2251 2306.7587 3171.9989 0.0000 -177066.9714 21011.6239 803.8332 0.0000 30368.1645 -117827.3672 295.2607 -148195.5317 -117790.8656 293.8414 -45.0042 0.7313 505965.0291 -26.0291 -26.5351
ENERGY: 5000 1560.7577 2258.9045 3156.2206 0.0000 -176582.6769 20537.0907 785.1677 0.0000 30517.2544 -117767.2813 296.7103 -148284.5357 -117723.8034 295.7270 40.8112 13.6442 504115.5681 -4.7318 -4.2016
TCL: Setting parameter constraintScaling to 5.0
TCL: Running for 5000 steps
ETITLE: TS BOND ANGLE DIHED IMPRP ELECT VDW BOUNDARY MISC KINETIC TOTAL TEMP POTENTIAL TOTAL3 TEMPAVG PRESSURE GPRESSURE VOLUME PRESSAVG GPRESSAVG
ENERGY: 5000 1560.7577 2258.9045 3156.2206 0.0000 -176582.6769 20537.0907 392.5838 0.0000 30515.2112 -118161.9083 296.6904 -148677.1195 -118118.6381 296.6904 -4.8422 -26.6739 504115.5681 -4.8422 -26.6739
ENERGY: 6000 1612.9310 2316.2707 3167.6439 0.0000 -175622.2029 20286.6084 630.2608 0.0000 30685.4053 -116923.0827 298.3451 -147608.4880 -116887.8081 297.6754 -78.3180 -30.0776 503785.8488 6.2473 5.9882
ENERGY: 7000 1617.1900 2266.8725 3172.5962 0.0000 -175980.9522 20393.9208 634.3467 0.0000 30701.0106 -117195.0154 298.4969 -147896.0259 -117142.6859 298.4702 33.6149 66.7339 502664.4730 0.1992 0.3890
ENERGY: 8000 1614.5690 2291.7847 3200.6273 0.0000 -175307.9359 19913.1758 693.7873 0.0000 30505.9506 -117088.0412 296.6004 -147593.9918 -117042.0707 299.1605 50.3441 38.3169 500990.3351 -2.3664 -3.8558
ENERGY: 9000 1623.0027 2310.9471 3159.3481 0.0000 -175767.2310 19920.5506 649.8727 0.0000 30750.2604 -117353.2494 298.9757 -148103.5098 -117304.0443 297.9668 -10.9067 14.9929 502089.2532 3.9497 3.9087
ENERGY: 10000 1612.4636 2305.2930 3147.8709 0.0000 -175790.6689 20243.5577 661.8643 0.0000 30693.0113 -117126.6082 298.4191 -147819.6195 -117072.4901 298.6838 -24.8615 -43.9796 501833.4649 4.5593 5.0555
TCL: Setting parameter constraintScaling to 2.5
TCL: Running for 5000 steps
ETITLE: TS BOND ANGLE DIHED IMPRP ELECT VDW BOUNDARY MISC KINETIC TOTAL TEMP POTENTIAL TOTAL3 TEMPAVG PRESSURE GPRESSURE VOLUME PRESSAVG GPRESSAVG
ENERGY: 10000 1612.4636 2305.2930 3147.8709 0.0000 -175790.6690 20243.5577 330.9322 0.0000 30690.9420 -117459.6097 298.3990 -148150.5517 -117416.2917 298.3990 -13.6958 -41.1433 501833.4649 -13.6958 -41.1433
ENERGY: 11000 1587.9017 2344.2380 3162.2474 0.0000 -175080.3886 19732.3017 518.0414 0.0000 30800.8894 -116934.7690 299.4680 -147735.6584 -116883.4803 299.4279 56.1525 33.9001 502551.1414 8.2446 8.6960
ENERGY: 12000 1634.6231 2298.8661 3180.8409 0.0000 -175290.1874 20055.0933 519.6371 0.0000 30817.8572 -116783.2697 299.6329 -147601.1269 -116746.0461 300.1622 45.8821 106.3541 500847.1408 -4.0785 -4.6613
ENERGY: 13000 1595.1860 2346.5201 3185.5716 0.0000 -175894.5797 20282.3953 499.0057 0.0000 30855.7305 -117130.1705 300.0012 -147985.9010 -117070.2441 299.6179 102.7017 86.1519 501092.4723 3.1589 3.1998
ENERGY: 14000 1585.9173 2280.2454 3181.0084 0.0000 -175943.2680 20218.8375 520.6890 0.0000 30874.7823 -117281.7881 300.1864 -148156.5703 -117237.9484 298.4276 -7.0817 -58.1893 500300.0624 -1.7760 -2.2859
ENERGY: 15000 1622.7944 2366.9544 3177.9065 0.0000 -175625.6185 20069.9182 516.6410 0.0000 30802.7269 -117068.6772 299.4858 -147871.4041 -117020.3176 300.1595 -24.5938 -20.7017 501056.3009 10.0211 10.1164
TCL: Setting parameter constraintScaling to 1.25
TCL: Running for 5000 steps
ETITLE: TS BOND ANGLE DIHED IMPRP ELECT VDW BOUNDARY MISC KINETIC TOTAL TEMP POTENTIAL TOTAL3 TEMPAVG PRESSURE GPRESSURE VOLUME PRESSAVG GPRESSAVG
ENERGY: 15000 1622.7944 2366.9544 3177.9065 0.0000 -175625.6185 20069.9182 258.3205 0.0000 30800.7046 -117329.0199 299.4662 -148129.7245 -117281.8492 299.4662 -118.9172 -117.8343 501056.3009 -118.9172 -117.8343
ENERGY: 16000 1647.7703 2313.9085 3213.9310 0.0000 -175693.7278 20171.6327 395.2292 0.0000 30656.9878 -117294.2683 298.0688 -147951.2561 -117265.5144 298.9569 15.2012 63.1865 499755.0468 -0.1898 0.0687
ENERGY: 17000 1648.5927 2377.9010 3176.3586 0.0000 -176268.0854 20405.7052 392.3131 0.0000 30730.3212 -117536.8936 298.7818 -148267.2148 -117493.2393 298.5809 0.0662 -23.0634 499497.8839 9.3017 9.4853
ENERGY: 18000 1618.2223 2380.1400 3191.2797 0.0000 -175902.0190 20271.1153 403.6280 0.0000 30757.3016 -117280.3321 299.0442 -148037.6337 -117239.6181 298.4594 13.2316 24.8725 498439.2546 -0.8267 -0.5709
ENERGY: 19000 1673.6574 2319.8066 3198.8036 0.0000 -176026.7865 20232.8146 412.4915 0.0000 30749.7209 -117439.4918 298.9705 -148189.2127 -117391.7002 299.0679 -26.3432 12.1041 497894.4361 -2.1889 -2.6160
ENERGY: 20000 1594.3718 2342.2049 3187.5806 0.0000 -176303.2738 20312.4461 420.8444 0.0000 30904.6896 -117541.1364 300.4772 -148445.8260 -117492.1207 299.6287 -84.3549 -71.7966 498233.1443 -1.7754 -2.4096
TCL: Setting parameter constraintScaling to 0.625
TCL: Running for 5000 steps
ETITLE: TS BOND ANGLE DIHED IMPRP ELECT VDW BOUNDARY MISC KINETIC TOTAL TEMP POTENTIAL TOTAL3 TEMPAVG PRESSURE GPRESSURE VOLUME PRESSAVG GPRESSAVG
ENERGY: 20000 1594.3718 2342.2049 3187.5806 0.0000 -176303.2738 20312.4461 210.4222 0.0000 30902.6469 -117753.6013 300.4573 -148656.2482 -117709.8052 300.4573 -84.2225 -71.3356 498233.1443 -84.2225 -71.3356
ENERGY: 21000 1625.9436 2421.3140 3211.8764 0.0000 -176306.3548 20371.1474 316.1220 0.0000 30553.8282 -117806.1231 297.0659 -148359.9513 -117753.5841 298.4275 -3.8937 29.7922 497354.1928 -14.4998 -14.8293
ENERGY: 22000 1629.8260 2390.8824 3168.9605 0.0000 -176151.4965 20324.9477 297.7911 0.0000 30593.9546 -117745.1342 297.4560 -148339.0888 -117701.5641 298.3575 12.0798 32.5191 499244.7429 16.4964 16.5515
ENERGY: 23000 1634.1673 2358.0324 3244.8757 0.0000 -176070.7521 20088.3885 316.1095 0.0000 30789.2635 -117639.9152 299.3549 -148429.1787 -117593.8019 298.5098 -47.0378 -50.0378 499377.2152 8.4272 8.6656
ENERGY: 24000 1595.3267 2424.9001 3194.6862 0.0000 -175428.6666 20098.8119 326.0438 0.0000 30802.9812 -116985.9166 299.4883 -147788.8979 -116946.4328 300.1073 46.1263 74.8125 499306.1097 3.4705 3.2258
ENERGY: 25000 1609.8046 2392.3139 3175.3583 0.0000 -175588.2701 20127.8213 320.8325 0.0000 30978.4963 -116983.6431 301.1948 -147962.1394 -116935.1931 299.4549 -58.8483 29.0045 500288.5364 14.4258 14.1600
TCL: Setting parameter constraintScaling to 0.3125
TCL: Running for 5000 steps
ETITLE: TS BOND ANGLE DIHED IMPRP ELECT VDW BOUNDARY MISC KINETIC TOTAL TEMP POTENTIAL TOTAL3 TEMPAVG PRESSURE GPRESSURE VOLUME PRESSAVG GPRESSAVG
ENERGY: 25000 1609.8046 2392.3139 3175.3583 0.0000 -175588.2701 20127.8213 160.4163 0.0000 30976.4250 -117146.1306 301.1746 -148122.5557 -117102.2603 301.1746 -105.2777 -16.8741 500288.5364 -105.2777 -16.8741
ENERGY: 26000 1632.8375 2400.3385 3221.9473 0.0000 -175999.2475 20306.8073 233.2655 0.0000 30669.6821 -117534.3694 298.1923 -148204.0514 -117490.9416 298.8864 85.8691 43.5261 499705.9509 -1.2053 -0.8824
ENERGY: 27000 1634.5171 2420.6967 3199.6457 0.0000 -176040.5142 20162.2910 264.8599 0.0000 30852.8910 -117505.6128 299.9736 -148358.5039 -117446.7008 299.6075 25.4623 50.8157 499711.8168 6.6572 6.8207
ENERGY: 28000 1613.3679 2370.6676 3243.5409 0.0000 -176186.7134 20252.0129 239.3697 0.0000 30777.2555 -117690.4988 299.2382 -148467.7543 -117649.0583 297.9669 -12.7241 -26.0628 498887.8814 -0.4773 -0.6656
ENERGY: 29000 1633.6666 2444.8976 3163.4170 0.0000 -175958.6561 20111.8291 255.3086 0.0000 30602.7479 -117746.7893 297.5415 -148349.5372 -117706.6202 298.5936 14.6739 47.9198 498719.2571 15.5401 15.5940
ENERGY: 30000 1663.3050 2475.7661 3205.0505 0.0000 -175917.3932 20037.9824 255.3749 0.0000 30738.2161 -117541.6982 298.8586 -148279.9143 -117500.2310 299.2375 -33.0540 -28.4178 497898.0818 -2.5552 -1.5300
TCL: Setting parameter constraintScaling to 0.15625
TCL: Running for 5000 steps
ETITLE: TS BOND ANGLE DIHED IMPRP ELECT VDW BOUNDARY MISC KINETIC TOTAL TEMP POTENTIAL TOTAL3 TEMPAVG PRESSURE GPRESSURE VOLUME PRESSAVG GPRESSAVG
ENERGY: 30000 1663.3050 2475.7661 3205.0505 0.0000 -175917.3932 20037.9824 127.6874 0.0000 30736.1535 -117671.4483 298.8385 -148407.6018 -117629.4664 298.8385 -53.8400 -54.0157 497898.0818 -53.8400 -54.0157
ENERGY: 31000 1671.2933 2370.3319 3179.0878 0.0000 -176014.4278 20092.7512 190.1151 0.0000 30681.7643 -117829.0843 298.3097 -148510.8486 -117786.1443 298.9485 -93.8182 -54.0704 497714.6654 7.5788 7.8063
ENERGY: 32000 1642.5297 2396.4578 3199.6646 0.0000 -175867.1033 20013.2940 173.9637 0.0000 30625.9143 -117815.2792 297.7667 -148441.1934 -117761.9984 299.6742 -4.4709 75.2480 496778.8227 -10.2444 -10.3373
ENERGY: 33000 1646.1721 2387.5323 3222.3427 0.0000 -175739.1987 20155.9723 219.9908 0.0000 30746.6976 -117360.4909 298.9411 -148107.1885 -117323.8535 299.8543 -79.6191 50.8360 497586.0702 6.6975 7.1128
ENERGY: 34000 1639.3333 2402.6333 3185.1757 0.0000 -176295.2494 20454.8157 187.5505 0.0000 30751.8973 -117673.8435 298.9916 -148425.7408 -117622.7109 298.4435 65.2429 24.2057 497587.2165 -7.1745 -7.4479
ENERGY: 35000 1609.6749 2434.2264 3205.9165 0.0000 -175749.8132 20185.9289 208.5959 0.0000 30751.1731 -117354.2977 298.9846 -148105.4708 -117298.4959 299.6939 27.8643 21.0200 498816.8843 -4.9523 -4.7904
TCL: Setting parameter constraintScaling to 0.078125
TCL: Running for 5000 steps
ETITLE: TS BOND ANGLE DIHED IMPRP ELECT VDW BOUNDARY MISC KINETIC TOTAL TEMP POTENTIAL TOTAL3 TEMPAVG PRESSURE GPRESSURE VOLUME PRESSAVG GPRESSAVG
ENERGY: 35000 1609.6749 2434.2264 3205.9165 0.0000 -175749.8132 20185.9289 104.2979 0.0000 30749.1423 -117460.6264 298.9648 -148209.7687 -117419.2760 298.9648 21.7473 7.0349 498816.8843 21.7473 7.0349
ENERGY: 36000 1656.1778 2490.0344 3203.2482 0.0000 -176174.1633 20314.1724 151.5810 0.0000 30857.8624 -117501.0871 300.0219 -148358.9495 -117449.9560 299.2735 81.0588 85.0405 496824.4805 -3.3386 -4.0631
ENERGY: 37000 1606.8444 2431.7517 3191.1818 0.0000 -175438.4341 19822.7068 154.4662 0.0000 30805.3787 -117426.1046 299.5116 -148231.4833 -117375.8776 299.6117 -50.1123 -6.6151 497335.8499 2.5304 2.1724
ENERGY: 38000 1601.3256 2472.0468 3221.7990 0.0000 -175826.3728 20039.7974 170.3909 0.0000 30872.4455 -117448.5678 300.1637 -148321.0132 -117403.1117 300.0358 -77.6791 -47.0180 498252.8123 -3.9144 -4.3954
ENERGY: 39000 1593.5210 2457.0570 3205.6853 0.0000 -175312.5351 20153.2608 162.9887 0.0000 30886.6065 -116853.4158 300.3014 -147740.0224 -116800.1135 301.4062 47.5093 17.5245 498384.1374 12.8498 12.9175
ENERGY: 40000 1640.7290 2426.0841 3222.7503 0.0000 -175805.6418 20220.1803 155.6150 0.0000 30935.2239 -117205.0592 300.7740 -148140.2831 -117157.5382 300.8285 -42.3297 8.9644 497572.4155 -16.1535 -15.9847
TCL: Setting parameter constraintScaling to 0.0390625
TCL: Running for 5000 steps
ETITLE: TS BOND ANGLE DIHED IMPRP ELECT VDW BOUNDARY MISC KINETIC TOTAL TEMP POTENTIAL TOTAL3 TEMPAVG PRESSURE GPRESSURE VOLUME PRESSAVG GPRESSAVG
ENERGY: 40000 1640.7290 2426.0841 3222.7503 0.0000 -175805.6418 20220.1803 77.8075 0.0000 30933.2096 -117284.8809 300.7545 -148218.0906 -117241.4473 300.7545 -58.1083 -6.2638 497572.4155 -58.1083 -6.2638
ENERGY: 41000 1665.1777 2413.5337 3199.5827 0.0000 -175734.5935 19931.7687 110.1354 0.0000 30815.7032 -117598.6921 299.6120 -148414.3953 -117540.4402 299.9669 -151.0483 -84.4172 497434.5756 5.9638 6.1656
ENERGY: 42000 1636.4690 2398.5646 3260.2180 0.0000 -175587.2501 19837.1856 111.9739 0.0000 30890.9044 -117451.9346 300.3431 -148342.8390 -117417.5837 299.9647 -186.1267 -151.8033 498114.5659 4.6731 4.6707
ENERGY: 43000 1647.4455 2422.7130 3210.0172 0.0000 -175811.6559 20119.2086 121.0661 0.0000 30996.4142 -117294.7913 301.3690 -148291.2055 -117249.9966 300.7750 14.3426 6.7622 499623.1723 -1.1943 -1.1414
ENERGY: 44000 1664.9746 2253.6178 3197.9116 0.0000 -175813.5149 19978.8185 120.5076 0.0000 30906.7979 -117690.8869 300.4977 -148597.6848 -117637.7738 299.2657 -95.9216 -74.6240 498119.9388 -4.2169 -4.1564
ENERGY: 45000 1664.0009 2417.0648 3196.0512 0.0000 -176199.2196 20159.4327 133.6608 0.0000 30816.4446 -117812.5645 299.6192 -148629.0091 -117763.6904 299.2761 35.2199 34.6703 497290.1550 3.5915 3.5769
TCL: Setting parameter constraintScaling to 0.01953125
TCL: Running for 5000 steps
ETITLE: TS BOND ANGLE DIHED IMPRP ELECT VDW BOUNDARY MISC KINETIC TOTAL TEMP POTENTIAL TOTAL3 TEMPAVG PRESSURE GPRESSURE VOLUME PRESSAVG GPRESSAVG
ENERGY: 45000 1664.0009 2417.0648 3196.0512 0.0000 -176199.2196 20159.4327 66.8304 0.0000 30814.3857 -117881.4538 299.5992 -148695.8395 -117838.6912 299.5992 21.2638 13.9147 497290.1550 21.2638 13.9147
ENERGY: 46000 1676.4571 2450.2610 3202.3523 0.0000 -175822.8538 19962.4280 81.6887 0.0000 30709.1849 -117740.4818 298.5763 -148449.6667 -117700.5255 299.3125 -186.0233 -161.4506 495609.2734 -7.5738 -7.7069
ENERGY: 47000 1612.5783 2356.5092 3209.5803 0.0000 -175755.3796 20121.5126 81.7872 0.0000 30886.9666 -117486.4454 300.3049 -148373.4120 -117448.1249 300.3305 111.9383 77.9395 496179.3648 6.4724 6.5692
ENERGY: 48000 1600.6665 2421.9139 3224.3451 0.0000 -175918.2267 20086.6612 88.2434 0.0000 30657.8256 -117838.5710 298.0770 -148496.3966 -117798.8237 299.9612 -60.2917 80.7346 495807.5091 -1.2482 -1.3766
ENERGY: 49000 1619.1755 2419.3432 3211.3884 0.0000 -175674.4382 19902.2739 93.2570 0.0000 30883.2764 -117545.7240 300.2690 -148429.0003 -117502.7090 300.5809 -11.9349 -41.8478 495597.9549 3.7518 4.2975
ENERGY: 50000 1648.7414 2442.8953 3202.5868 0.0000 -175945.9354 19893.1489 89.4863 0.0000 30733.4331 -117935.6435 298.8121 -148669.0766 -117879.0297 299.3955 -19.8804 32.8087 495614.0335 -5.8836 -6.6219
TCL: Setting parameter constraintScaling to 0
TCL: Running for 5000 steps
ETITLE: TS BOND ANGLE DIHED IMPRP ELECT VDW BOUNDARY MISC KINETIC TOTAL TEMP POTENTIAL TOTAL3 TEMPAVG PRESSURE GPRESSURE VOLUME PRESSAVG GPRESSAVG
ENERGY: 50000 1648.7414 2442.8953 3202.5868 0.0000 -175945.9354 19893.1489 0.0000 0.0000 30731.3638 -118027.1991 298.7920 -148758.5629 -117986.4348 298.7920 -45.3006 9.5484 495614.0335 -45.3006 9.5484
ENERGY: 51000 1684.5218 2395.7450 3212.6262 0.0000 -175770.1122 20123.3555 0.0000 0.0000 30932.8993 -117420.9645 300.7514 -148353.8637 -117374.0870 300.8282 -79.8849 39.7889 495252.9236 -6.2778 -6.1461
ENERGY: 52000 1716.5655 2432.3855 3191.7164 0.0000 -176232.6599 20312.5722 0.0000 0.0000 30936.9738 -117642.4466 300.7911 -148579.4204 -117597.1294 299.6623 79.1643 67.9967 495762.8336 -6.8656 -6.7954
ENERGY: 53000 1636.8469 2365.2516 3198.5549 0.0000 -175765.4639 19972.1925 0.0000 0.0000 30837.8471 -117754.7710 299.8273 -148592.6181 -117692.5675 300.3320 -43.9552 -48.8365 495650.7267 1.2341 0.6724
ENERGY: 54000 1654.9248 2433.7871 3200.3277 0.0000 -175903.1935 20003.3089 0.0000 0.0000 30773.7165 -117837.1285 299.2038 -148610.8450 -117792.9507 299.1892 -5.4198 -0.5012 495500.6984 -8.5381 -8.6188
ENERGY: 55000 1705.8505 2385.3891 3201.8733 0.0000 -175893.5959 20037.4515 0.0000 0.0000 30583.1688 -117979.8626 297.3511 -148563.0314 -117933.0173 300.3678 -13.4936 -1.9656 495270.3631 2.4635 2.3804
