Info: SIMULATION PARAMETERS:
Info: TIMESTEP               1
Info: NUMBER OF STEPS        0
Info: STEPS PER CYCLE        10
Info: PERIODIC CELL BASIS 1  72.449 0 0
Info: PERIODIC CELL BASIS 2  0 93.247 0
Info: PERIODIC CELL BASIS 3  0 0 79.185
Info: PERIODIC CELL CENTER   -0.248 -0.156 -0.047
Info: WRAPPING WATERS AROUND PERIODIC BOUNDARIES ON OUTPUT.
Info: WRAPPING ALL CLUSTERS AROUND PERIODIC BOUNDARIES ON OUTPUT.
Info: FIRST LDB TIMESTEP     50
Info: LAST LDB TIMESTEP     -1
Info: HOM BACKGROUND SCALING 1
Info: PME BACKGROUND SCALING 1
Info: MIN ATOMS PER PATCH    40
Info: VELOCITY FILE          ../replicas/rep70/equilibration/eq1.vel
Info: CENTER OF MASS MOVING INITIALLY? NO
Info: DIELECTRIC             1
Info: EXCLUDE                SCALED ONE-FOUR
Info: 1-4 ELECTROSTATICS SCALED BY 0.833333
Info: MODIFIED 1-4 VDW PARAMETERS WILL BE USED
Info: DCD FILENAME           ../replicas/rep70/equilibration/eq2.dcd
Info: DCD FREQUENCY          5000
Info: DCD FIRST STEP         5000
Info: DCD FILE WILL CONTAIN UNIT CELL DATA
Info: XST FILENAME           ../replicas/rep70/equilibration/eq2.xst
Info: XST FREQUENCY          5000
Info: NO VELOCITY DCD OUTPUT
Info: NO FORCE DCD OUTPUT
Info: OUTPUT FILENAME        ../replicas/rep70/equilibration/eq2
Info: RESTART FILENAME       ../replicas/rep70/equilibration/eq2.restart
Info: RESTART FREQUENCY      5000
Info: BINARY RESTART FILES WILL BE USED
Info: SWITCHING ACTIVE
Info: SWITCHING ON           10
Info: SWITCHING OFF          12
Info: PAIRLIST DISTANCE      13.5
Info: PAIRLIST SHRINK RATE   0.01
Info: PAIRLIST GROW RATE     0.01
Info: PAIRLIST TRIGGER       0.3
Info: PAIRLISTS PER CYCLE    2
Info: PAIRLISTS ENABLED
Info: MARGIN                 0.48
Info: HYDROGEN GROUP CUTOFF  2.5
Info: PATCH DIMENSION        16.48
Info: ENERGY OUTPUT STEPS    500
Info: CROSSTERM ENERGY INCLUDED IN DIHEDRAL
Info: TIMING OUTPUT STEPS    5000
Info: PRESSURE OUTPUT STEPS  500
Info: HARMONIC CONSTRAINTS ACTIVE
Info: HARMONIC CONS EXP      2
Info: HARMONIC CONS SCALING  10
Info: LANGEVIN DYNAMICS ACTIVE
Info: LANGEVIN TEMPERATURE   300
Info: LANGEVIN USING BBK INTEGRATOR
Info: LANGEVIN DAMPING COEFFICIENT IS 5 INVERSE PS
Info: LANGEVIN DYNAMICS NOT APPLIED TO HYDROGENS
Info: BERENDSEN PRESSURE COUPLING ACTIVE
Info:     TARGET PRESSURE IS 1 BAR
Info:     COMPRESSIBILITY ESTIMATE IS 4.57e-05 BAR^(-1)
Info:     RELAXATION TIME IS 100 FS
Info:     APPLIED EVERY 2 STEPS
Info:     PRESSURE CONTROL IS GROUP-BASED
Info:       CELL FLUCTUATION IS ISOTROPIC
Info: PARTICLE MESH EWALD (PME) ACTIVE
Info: PME TOLERANCE               1e-06
Info: PME EWALD COEFFICIENT       0.257952
Info: PME INTERPOLATION ORDER     4
Info: PME GRID DIMENSIONS         80 96 80
Info: PME MAXIMUM GRID SPACING    1
Info: FULL ELECTROSTATIC EVALUATION FREQUENCY      2
Info: USING VERLET I (r-RESPA) MTS SCHEME.
Info: C1 SPLITTING OF LONG RANGE ELECTROSTATICS
Info: PLACING ATOMS IN PATCHES BY HYDROGEN GROUPS
Info: RIGID BONDS TO HYDROGEN : WATER
Info:         ERROR TOLERANCE : 1e-05
Info:          MAX ITERATIONS : 100
Info: RIGID WATER USING SETTLE ALGORITHM
Info: RANDOM NUMBER SEED     1503719173
Info: USE HYDROGEN BONDS?    NO
Info: Using AMBER format force field!
Info: AMBER PARM FILE        ../build/complex.top
Info: COORDINATE PDB         ../replicas/rep70/equilibration/eq1.coor
Info: Exclusions in PARM file will be ignored!
Info: SCNB (VDW SCALING)     2
Info: USING ARITHMETIC MEAN TO COMBINE L-J SIGMA PARAMETERS
Info: SUMMARY OF PARAMETERS:
Info: 71 BONDS
Info: 145 ANGLES
Info:   145 HARMONIC
Info:   0 COSINE-BASED
Info: 76 DIHEDRAL
Info: 0 IMPROPER
Info: 0 CROSSTERM
Info: 0 VDW
Info: 190 VDW_PAIRS
Info: 0 NBTHOLE_PAIRS
Info: STRUCTURE SUMMARY:
Info: 49394 ATOMS
Info: 49448 BONDS
Info: 8698 ANGLES
Info: 18780 DIHEDRALS
Info: 0 IMPROPERS
Info: 0 CROSSTERMS
Info: 0 EXCLUSIONS
Info: 2336 CONSTRAINTS
Info: 44667 RIGID BONDS
Info: 103515 DEGREES OF FREEDOM
Info: 17225 HYDROGEN GROUPS
Info: 4 ATOMS IN LARGEST HYDROGEN GROUP
Info: 17225 MIGRATION GROUPS
Info: 4 ATOMS IN LARGEST MIGRATION GROUP
Info: TOTAL MASS = 301478 amu
Info: TOTAL CHARGE = 1.00115e-05 e
Info: MASS DENSITY = 0.935846 g/cm^3
Info: ATOM DENSITY = 0.0923345 atoms/A^3
Info: ADDED 70656 IMPLICIT EXCLUSIONS
Info: NONBONDED TABLE R-SQUARED SPACING: 0.0625
Info: NONBONDED TABLE SIZE: 769 POINTS
Info: REMOVING COM VELOCITY 0.0141174 -0.00304934 -0.0385328
TCL: Running for 5000 steps
ETITLE: TS BOND ANGLE DIHED IMPRP ELECT VDW BOUNDARY MISC KINETIC TOTAL TEMP POTENTIAL TOTAL3 TEMPAVG PRESSURE GPRESSURE VOLUME PRESSAVG GPRESSAVG
ENERGY: 0 390.7033 1232.4398 2916.6795 0.0000 -212537.4206 29414.7493 0.0000 0.0000 10028.2474 -168554.6012 97.5017 -178582.8486 -168544.9219 97.5017 -2461.5717 -2562.5067 534946.2959 -2461.5717 -2562.5067
ENERGY: 1000 1231.8927 1946.9258 3126.4339 0.0000 -192967.5341 26041.2275 775.1645 0.0000 24043.1650 -135802.7246 233.7646 -159845.8896 -135785.5495 218.6024 33.5610 -3.2518 522965.0067 -15.1036 -15.0319
ENERGY: 2000 1478.0711 2173.5035 3139.5781 0.0000 -183957.1015 23001.1249 790.3315 0.0000 27934.5142 -125439.9783 271.5990 -153374.4925 -125406.9840 264.0671 -205.1162 -40.1551 515133.4635 -29.8315 -29.5088
ENERGY: 3000 1552.8421 2226.6909 3143.9892 0.0000 -179015.6357 21560.9030 820.7561 0.0000 29509.6320 -120200.8224 286.9134 -149710.4544 -120157.0099 284.4680 -83.3723 20.7264 509732.4157 -24.5789 -24.6057
ENERGY: 4000 1595.5937 2269.6288 3133.7360 0.0000 -176445.4232 20819.3391 809.6426 0.0000 30252.1616 -117565.3213 294.1328 -147817.4829 -117519.9786 294.2683 -22.9615 15.9208 506816.6287 -2.5538 -2.3953
ENERGY: 5000 1544.1511 2273.4807 3114.0775 0.0000 -175797.7996 20314.0852 794.4437 0.0000 30878.3122 -116879.2492 300.2207 -147757.5613 -116829.9909 298.0840 -59.3319 9.4536 503641.0650 -9.2736 -8.9596
TCL: Setting parameter constraintScaling to 5.0
TCL: Running for 5000 steps
ETITLE: TS BOND ANGLE DIHED IMPRP ELECT VDW BOUNDARY MISC KINETIC TOTAL TEMP POTENTIAL TOTAL3 TEMPAVG PRESSURE GPRESSURE VOLUME PRESSAVG GPRESSAVG
ENERGY: 5000 1544.1511 2273.4807 3114.0775 0.0000 -175797.7997 20314.0852 397.2219 0.0000 30876.2461 -117278.5371 300.2006 -148154.7832 -117231.3348 300.2006 -178.9796 -108.7194 503641.0650 -178.9796 -108.7194
ENERGY: 6000 1624.5111 2302.3345 3140.5538 0.0000 -175658.9143 20373.8084 632.8368 0.0000 30670.8787 -116913.9910 298.2039 -147584.8697 -116866.8505 299.5979 40.9142 24.9674 501441.1676 -9.5184 -9.6439
ENERGY: 7000 1695.1963 2297.4953 3137.1787 0.0000 -175154.8229 19982.7111 652.1917 0.0000 30819.1965 -116570.8534 299.6459 -147390.0499 -116522.1022 299.4768 -118.9645 16.4186 501596.4050 -3.4999 -3.5847
ENERGY: 8000 1576.9330 2301.9015 3135.0885 0.0000 -175417.8135 20124.5910 651.7425 0.0000 30782.3584 -116845.1987 299.2878 -147627.5570 -116800.2641 299.4790 48.5868 16.2912 501771.1205 8.3577 8.5671
ENERGY: 9000 1664.7377 2292.2961 3131.6565 0.0000 -175851.9307 20386.9029 655.6391 0.0000 30811.7467 -116908.9516 299.5735 -147720.6983 -116865.7268 299.7263 -54.9280 -55.3096 499768.3615 -4.4867 -4.5724
ENERGY: 10000 1657.0071 2289.0502 3160.7355 0.0000 -175363.2231 20084.4176 646.9932 0.0000 30699.2598 -116825.7597 298.4798 -147525.0195 -116782.9810 300.0022 -76.9413 -29.8461 501627.0367 12.2900 12.3469
TCL: Setting parameter constraintScaling to 2.5
TCL: Running for 5000 steps
ETITLE: TS BOND ANGLE DIHED IMPRP ELECT VDW BOUNDARY MISC KINETIC TOTAL TEMP POTENTIAL TOTAL3 TEMPAVG PRESSURE GPRESSURE VOLUME PRESSAVG GPRESSAVG
ENERGY: 10000 1657.0071 2289.0502 3160.7355 0.0000 -175363.2231 20084.4176 323.4966 0.0000 30697.2125 -117151.3036 298.4599 -147848.5161 -117107.3211 298.4599 -132.8485 -82.8830 501627.0367 -132.8485 -82.8830
ENERGY: 11000 1613.7653 2321.3911 3201.3521 0.0000 -175977.2371 20353.2155 517.3947 0.0000 30651.6452 -117318.4732 298.0169 -147970.1184 -117266.0632 298.5740 -105.7113 53.6576 500153.1754 -9.7450 -9.3390
ENERGY: 12000 1605.4345 2348.8039 3144.1701 0.0000 -175651.0962 19904.2137 526.6685 0.0000 30616.6738 -117505.1318 297.6769 -148121.8056 -117452.3493 299.0154 5.1236 24.6774 499100.4612 -1.0247 -1.2932
ENERGY: 13000 1611.0912 2351.9635 3165.4006 0.0000 -175943.3744 20095.1245 517.3354 0.0000 30755.0225 -117447.4367 299.0220 -148202.4592 -117401.2776 299.3022 3.2700 83.7302 499745.3186 14.4032 15.1621
ENERGY: 14000 1638.9259 2368.0785 3187.7874 0.0000 -175885.9211 20182.9806 504.6978 0.0000 30839.8815 -117163.5693 299.8471 -148003.4509 -117118.8462 299.9781 -100.2869 -75.4387 500265.8522 2.6463 2.3921
ENERGY: 15000 1551.1824 2330.9427 3166.7698 0.0000 -175447.2664 19963.9452 502.0034 0.0000 30683.2902 -117249.1328 298.3246 -147932.4229 -117215.2318 298.8787 -7.5168 -13.0217 499278.3857 -0.8774 -0.8272
TCL: Setting parameter constraintScaling to 1.25
TCL: Running for 5000 steps
ETITLE: TS BOND ANGLE DIHED IMPRP ELECT VDW BOUNDARY MISC KINETIC TOTAL TEMP POTENTIAL TOTAL3 TEMPAVG PRESSURE GPRESSURE VOLUME PRESSAVG GPRESSAVG
ENERGY: 15000 1551.1824 2330.9427 3166.7698 0.0000 -175447.2664 19963.9452 251.0017 0.0000 30681.2471 -117502.1776 298.3047 -148183.4247 -117455.4634 298.3047 -0.2471 -5.0597 499278.3857 -0.2471 -5.0597
ENERGY: 16000 1639.0728 2392.1846 3170.9604 0.0000 -175383.4181 20097.0455 402.6824 0.0000 30922.4520 -116759.0203 300.6499 -147681.4723 -116721.6131 300.1926 23.9913 28.0732 499706.0327 2.4414 2.7720
ENERGY: 17000 1624.6592 2328.0258 3196.5880 0.0000 -175652.9164 19975.6174 409.4247 0.0000 30567.3639 -117551.2374 297.1975 -148118.6013 -117514.2008 298.5698 -49.4133 -66.2366 499888.5347 7.2797 7.1533
ENERGY: 18000 1627.3088 2376.9338 3176.7782 0.0000 -176094.3663 20335.2033 377.1867 0.0000 30808.0869 -117392.8685 299.5379 -148200.9554 -117340.9846 298.6207 -47.4992 19.2314 498703.5541 -9.6690 -9.5258
ENERGY: 19000 1644.8093 2401.2819 3163.7055 0.0000 -175900.2295 19946.2238 425.5331 0.0000 30542.7198 -117775.9561 296.9578 -148318.6760 -117741.5583 299.0665 -15.0039 -29.1680 498169.6631 -1.9406 -2.4282
ENERGY: 20000 1616.8572 2369.0972 3190.9145 0.0000 -175693.4069 19901.1256 398.4790 0.0000 30668.1681 -117548.7652 298.1775 -148216.9333 -117504.4094 298.7525 18.2856 16.3042 498450.6109 0.9913 0.7186
TCL: Setting parameter constraintScaling to 0.625
TCL: Running for 5000 steps
ETITLE: TS BOND ANGLE DIHED IMPRP ELECT VDW BOUNDARY MISC KINETIC TOTAL TEMP POTENTIAL TOTAL3 TEMPAVG PRESSURE GPRESSURE VOLUME PRESSAVG GPRESSAVG
ENERGY: 20000 1616.8572 2369.0972 3190.9145 0.0000 -175693.4069 19901.1256 199.2395 0.0000 30666.1183 -117750.0545 298.1576 -148416.1728 -117708.2922 298.1576 -59.7295 -59.1875 498450.6109 -59.7295 -59.1875
ENERGY: 21000 1641.7373 2305.4377 3191.2928 0.0000 -176014.7855 20093.0751 330.2285 0.0000 30896.7455 -117556.2685 300.3999 -148453.0140 -117510.8899 297.8302 -53.8827 -66.1265 498469.4489 -6.1123 -6.0669
ENERGY: 22000 1613.9594 2413.4990 3208.4995 0.0000 -175706.2888 20148.6301 300.2076 0.0000 30681.3709 -117340.1222 298.3059 -148021.4931 -117289.8831 298.9487 100.2011 41.0293 498029.9501 2.2847 2.0887
ENERGY: 23000 1626.7959 2412.8617 3196.3765 0.0000 -175720.2559 20105.3439 314.5569 0.0000 30846.8917 -117217.4293 299.9152 -148064.3210 -117156.3709 299.1014 33.4900 74.3988 498134.2412 4.8946 4.8665
ENERGY: 24000 1612.2999 2370.1646 3198.8351 0.0000 -175507.0136 20003.6727 327.7747 0.0000 30618.0902 -117376.1764 297.6907 -147994.2667 -117328.6296 299.4805 61.8574 15.5703 496920.9507 -2.4308 -2.6901
ENERGY: 25000 1582.0704 2384.4729 3155.5771 0.0000 -175999.0820 20106.8573 324.2764 0.0000 30824.2533 -117621.5746 299.6951 -148445.8279 -117579.0938 299.5526 74.4763 2.4505 496012.1556 -2.1395 -1.7693
TCL: Setting parameter constraintScaling to 0.3125
TCL: Running for 5000 steps
ETITLE: TS BOND ANGLE DIHED IMPRP ELECT VDW BOUNDARY MISC KINETIC TOTAL TEMP POTENTIAL TOTAL3 TEMPAVG PRESSURE GPRESSURE VOLUME PRESSAVG GPRESSAVG
ENERGY: 25000 1582.0704 2384.4729 3155.5771 0.0000 -175999.0820 20106.8573 162.1382 0.0000 30822.1946 -117785.7715 299.6751 -148607.9661 -117740.1532 299.6751 59.0018 -11.4458 496012.1556 59.0018 -11.4458
ENERGY: 26000 1574.6223 2420.8313 3202.2186 0.0000 -176005.9037 20098.8388 233.3554 0.0000 30816.8149 -117659.2223 299.6228 -148476.0372 -117613.8791 299.2611 -158.2159 -14.3871 495825.5736 -4.1302 -3.8520
ENERGY: 27000 1593.5704 2469.7132 3204.1388 0.0000 -176170.4362 20152.4450 231.4545 0.0000 30938.3940 -117580.7203 300.8049 -148519.1143 -117533.7746 299.3437 -162.8815 -54.6473 496518.9069 -6.9561 -6.4935
ENERGY: 28000 1655.0415 2317.3236 3221.8561 0.0000 -176270.4298 20188.0046 246.8049 0.0000 30850.5584 -117790.8407 299.9509 -148641.3991 -117747.8218 298.5191 -86.3634 -47.1889 497130.5350 11.6714 11.2836
ENERGY: 29000 1599.2859 2339.5312 3188.5575 0.0000 -175618.5941 19915.1302 244.5737 0.0000 30794.8219 -117536.6936 299.4090 -148331.5156 -117489.3719 300.1654 69.4111 64.0352 498005.6919 1.2827 1.1370
ENERGY: 30000 1633.6709 2434.0927 3215.6965 0.0000 -175652.0035 20022.1752 250.3234 0.0000 30792.0018 -117304.0430 299.3815 -148096.0448 -117264.7682 300.3568 70.9448 55.5281 498173.6173 1.5863 1.7162
TCL: Setting parameter constraintScaling to 0.15625
TCL: Running for 5000 steps
ETITLE: TS BOND ANGLE DIHED IMPRP ELECT VDW BOUNDARY MISC KINETIC TOTAL TEMP POTENTIAL TOTAL3 TEMPAVG PRESSURE GPRESSURE VOLUME PRESSAVG GPRESSAVG
ENERGY: 30000 1633.6709 2434.0927 3215.6965 0.0000 -175652.0035 20022.1752 125.1617 0.0000 30789.9194 -117431.2871 299.3613 -148221.2065 -117384.0641 299.3613 41.1121 31.9567 498173.6173 41.1121 31.9567
ENERGY: 31000 1625.0097 2345.6849 3184.1998 0.0000 -175603.2045 19946.6975 186.6883 0.0000 30889.6125 -117425.3117 300.3306 -148314.9242 -117375.8708 300.2691 114.6324 71.7386 497914.2291 14.9703 14.8138
ENERGY: 32000 1621.0081 2386.2610 3208.3390 0.0000 -175698.0775 19964.6499 192.2825 0.0000 30717.1859 -117608.3511 298.6541 -148325.5370 -117562.6592 298.8767 28.0753 -16.4735 497577.6082 -9.5265 -9.0822
ENERGY: 33000 1672.0031 2397.4793 3241.8007 0.0000 -175715.0425 19881.2016 205.6985 0.0000 30925.4869 -117391.3724 300.6794 -148316.8593 -117344.9227 300.1975 -89.9559 7.3287 497600.3453 6.1089 6.4290
ENERGY: 34000 1662.1263 2442.1466 3235.5015 0.0000 -175600.8227 20043.3629 218.6796 0.0000 30856.7404 -117142.2655 300.0110 -147999.0059 -117100.9793 300.6300 7.1566 -8.8379 498368.4828 8.0226 8.3354
ENERGY: 35000 1655.0251 2371.6676 3188.4906 0.0000 -175991.7625 20237.4388 211.7568 0.0000 30794.9305 -117532.4531 299.4100 -148327.3836 -117486.4901 300.8250 -32.8846 -5.1210 498484.3862 2.4904 2.5310
TCL: Setting parameter constraintScaling to 0.078125
TCL: Running for 5000 steps
ETITLE: TS BOND ANGLE DIHED IMPRP ELECT VDW BOUNDARY MISC KINETIC TOTAL TEMP POTENTIAL TOTAL3 TEMPAVG PRESSURE GPRESSURE VOLUME PRESSAVG GPRESSAVG
ENERGY: 35000 1655.0251 2371.6676 3188.4906 0.0000 -175991.7625 20237.4388 105.8784 0.0000 30792.9316 -117640.3305 299.3906 -148433.2620 -117594.5594 299.3906 -43.7270 -19.7787 498484.3862 -43.7270 -19.7787
ENERGY: 36000 1639.4718 2439.8145 3185.2463 0.0000 -176146.4704 20213.0244 152.8433 0.0000 31030.8620 -117485.2081 301.7039 -148516.0701 -117444.8076 300.1160 89.5663 48.9613 496550.5577 -7.4675 -7.1407
ENERGY: 37000 1637.9305 2356.9551 3206.7972 0.0000 -175533.4308 19996.7516 160.3103 0.0000 30984.8460 -117189.8402 301.2565 -148174.6861 -117144.6817 301.3633 11.7180 -22.5578 497758.7239 11.6007 12.1259
ENERGY: 38000 1631.7146 2409.3387 3173.0703 0.0000 -175523.0175 19982.9854 176.9599 0.0000 30756.7237 -117392.2250 299.0385 -148148.9487 -117348.0465 300.1482 -209.8102 -27.5445 497443.1852 -20.1827 -20.1318
ENERGY: 39000 1679.4521 2416.4191 3201.6688 0.0000 -175554.3276 19957.6707 166.9900 0.0000 30704.2927 -117427.8343 298.5288 -148132.1270 -117387.3666 299.9002 -46.7355 11.9181 496670.3365 -13.5858 -12.9571
ENERGY: 40000 1627.8495 2403.7485 3224.0223 0.0000 -175888.1302 20050.1532 166.4596 0.0000 30828.9305 -117586.9666 299.7406 -148415.8971 -117548.6227 300.0191 116.8803 30.2119 496236.6481 -12.8778 -12.7823
TCL: Setting parameter constraintScaling to 0.0390625
TCL: Running for 5000 steps
ETITLE: TS BOND ANGLE DIHED IMPRP ELECT VDW BOUNDARY MISC KINETIC TOTAL TEMP POTENTIAL TOTAL3 TEMPAVG PRESSURE GPRESSURE VOLUME PRESSAVG GPRESSAVG
ENERGY: 40000 1627.8495 2403.7485 3224.0223 0.0000 -175888.1302 20050.1532 83.2298 0.0000 30826.8864 -117672.2405 299.7207 -148499.1269 -117627.6671 299.7207 93.6118 13.0869 496236.6481 93.6118 13.0869
ENERGY: 41000 1613.0174 2405.9960 3240.8613 0.0000 -176181.3724 20102.1928 113.8968 0.0000 30701.4769 -118003.9312 298.5014 -148705.4081 -117965.6346 298.6438 -77.6144 -16.0368 497959.2997 18.8960 18.4928
ENERGY: 42000 1702.5601 2433.5004 3237.6453 0.0000 -176044.4154 20125.3482 116.8315 0.0000 30941.1299 -117487.4000 300.8315 -148428.5299 -117448.7153 299.9938 -16.5730 -24.4323 497784.6877 6.0378 5.5824
ENERGY: 43000 1630.9863 2352.9181 3232.4270 0.0000 -176349.2745 20297.4822 130.6654 0.0000 30993.0286 -117711.7671 301.3361 -148704.7957 -117672.6541 300.9614 61.5738 13.4647 496603.6716 -4.5217 -4.0548
ENERGY: 44000 1680.0486 2504.7224 3190.2259 0.0000 -175970.3848 19947.4248 128.1753 0.0000 30582.1859 -117937.6019 297.3416 -148519.7878 -117896.1153 299.5883 -202.0063 -102.0148 496836.3984 -4.2545 -3.9888
ENERGY: 45000 1645.6512 2415.8332 3214.3414 0.0000 -176288.3281 20101.9471 130.1629 0.0000 30619.4685 -118160.9239 297.7041 -148780.3924 -118116.2672 298.6208 1.0259 35.6314 495396.7525 -2.9532 -2.8690
TCL: Setting parameter constraintScaling to 0.01953125
TCL: Running for 5000 steps
ETITLE: TS BOND ANGLE DIHED IMPRP ELECT VDW BOUNDARY MISC KINETIC TOTAL TEMP POTENTIAL TOTAL3 TEMPAVG PRESSURE GPRESSURE VOLUME PRESSAVG GPRESSAVG
ENERGY: 45000 1645.6512 2415.8332 3214.3414 0.0000 -176288.3281 20101.9471 65.0814 0.0000 30617.4189 -118228.0549 297.6841 -148845.4738 -118182.9724 297.6841 -5.2110 26.6916 495396.7525 -5.2110 26.6916
ENERGY: 46000 1624.8648 2461.9398 3196.3643 0.0000 -176262.5203 20078.6609 77.5128 0.0000 30647.6634 -118175.5141 297.9782 -148823.1775 -118132.1203 297.9566 -39.6788 10.3533 495595.6171 8.9969 9.0491
ENERGY: 47000 1650.1495 2416.4320 3211.1092 0.0000 -176318.6342 20133.4466 86.4828 0.0000 30783.9054 -118037.1087 299.3028 -148821.0141 -117998.5116 298.9990 -21.0510 1.4839 496334.0023 -1.9630 -2.0217
ENERGY: 48000 1658.1550 2422.8697 3192.2514 0.0000 -176077.3770 19928.7682 87.2061 0.0000 30828.0080 -117960.1187 299.7316 -148788.1266 -117924.3375 299.0726 -4.5125 -43.0489 496874.3835 12.3177 11.4021
ENERGY: 49000 1705.5886 2372.5697 3213.2787 0.0000 -175652.1617 19858.4318 94.2820 0.0000 31030.6748 -117377.3362 301.7021 -148408.0110 -117334.7799 300.1176 -91.4215 -47.8814 496882.1270 -3.2391 -3.1608
ENERGY: 50000 1659.9806 2408.2829 3232.1768 0.0000 -176155.0369 20291.6928 92.1377 0.0000 30661.2734 -117809.4927 298.1105 -148470.7661 -117766.8009 299.7220 -56.4183 -58.2176 499095.2801 -2.4357 -2.2477
TCL: Setting parameter constraintScaling to 0
TCL: Running for 5000 steps
ETITLE: TS BOND ANGLE DIHED IMPRP ELECT VDW BOUNDARY MISC KINETIC TOTAL TEMP POTENTIAL TOTAL3 TEMPAVG PRESSURE GPRESSURE VOLUME PRESSAVG GPRESSAVG
ENERGY: 50000 1659.9806 2408.2829 3232.1768 0.0000 -176155.0369 20291.6928 0.0000 0.0000 30659.2194 -117903.6844 298.0905 -148562.9038 -117858.8574 298.0905 -89.5195 -86.2830 499095.2801 -89.5195 -86.2830
ENERGY: 51000 1680.8164 2447.6241 3204.3355 0.0000 -175810.4555 19894.4860 0.0000 0.0000 30797.4924 -117785.7012 299.4349 -148583.1935 -117746.4067 299.5271 -100.8843 -75.7823 497237.7245 -7.4149 -7.6095
ENERGY: 52000 1635.7070 2437.3173 3176.7872 0.0000 -175911.3812 19934.7239 0.0000 0.0000 30759.2119 -117967.6339 299.0627 -148726.8458 -117913.6461 299.8740 -115.9741 -77.1085 496713.8673 -4.8860 -4.5469
ENERGY: 53000 1704.5344 2444.9335 3212.6614 0.0000 -175990.8365 20124.9110 0.0000 0.0000 30778.5297 -117725.2664 299.2506 -148503.7961 -117685.2894 300.2559 -134.7791 -36.8491 497054.8695 10.5882 10.9755
ENERGY: 54000 1680.4228 2385.2920 3202.2930 0.0000 -176042.6337 20082.9128 0.0000 0.0000 30885.1228 -117806.5903 300.2869 -148691.7131 -117764.7014 300.0205 -176.9853 -67.8940 496148.5134 -5.3936 -5.6460
ENERGY: 55000 1608.0704 2401.8141 3230.8331 0.0000 -176066.2616 20086.2287 0.0000 0.0000 30861.5702 -117877.7452 300.0579 -148739.3154 -117828.5053 299.2932 -48.2455 -9.8291 495955.3645 10.5174 10.9709
