Info: SIMULATION PARAMETERS:
Info: TIMESTEP               2
Info: NUMBER OF STEPS        0
Info: STEPS PER CYCLE        10
Info: PERIODIC CELL BASIS 1  72.449 0 0
Info: PERIODIC CELL BASIS 2  0 93.247 0
Info: PERIODIC CELL BASIS 3  0 0 79.185
Info: PERIODIC CELL CENTER   -0.248 -0.156 -0.047
Info: WRAPPING WATERS AROUND PERIODIC BOUNDARIES ON OUTPUT.
Info: WRAPPING ALL CLUSTERS AROUND PERIODIC BOUNDARIES ON OUTPUT.
Info: FIRST LDB TIMESTEP     50
Info: LAST LDB TIMESTEP     -1
Info: HOM BACKGROUND SCALING 1
Info: PME BACKGROUND SCALING 1
Info: MIN ATOMS PER PATCH    40
Info: INITIAL TEMPERATURE    0
Info: CENTER OF MASS MOVING INITIALLY? NO
Info: DIELECTRIC             1
Info: EXCLUDE                SCALED ONE-FOUR
Info: 1-4 ELECTROSTATICS SCALED BY 0.833333
Info: MODIFIED 1-4 VDW PARAMETERS WILL BE USED
Info: NO DCD TRAJECTORY OUTPUT
Info: NO EXTENDED SYSTEM TRAJECTORY OUTPUT
Info: NO VELOCITY DCD OUTPUT
Info: NO FORCE DCD OUTPUT
Info: OUTPUT FILENAME        ../replicas/rep22/equilibration/eq0
Info: NO RESTART FILE
Info: SWITCHING ACTIVE
Info: SWITCHING ON           10
Info: SWITCHING OFF          12
Info: PAIRLIST DISTANCE      13.5
Info: PAIRLIST SHRINK RATE   0.01
Info: PAIRLIST GROW RATE     0.01
Info: PAIRLIST TRIGGER       0.3
Info: PAIRLISTS PER CYCLE    2
Info: PAIRLISTS ENABLED
Info: MARGIN                 0
Info: HYDROGEN GROUP CUTOFF  2.5
Info: PATCH DIMENSION        16
Info: ENERGY OUTPUT STEPS    500
Info: CROSSTERM ENERGY INCLUDED IN DIHEDRAL
Info: TIMING OUTPUT STEPS    5000
Info: PRESSURE OUTPUT STEPS  500
Info: HARMONIC CONSTRAINTS ACTIVE
Info: HARMONIC CONS EXP      2
Info: HARMONIC CONS SCALING  10
Info: CONJUGATE GRADIENT MINIMIZATION ACTIVE
Info: LINE MINIMIZATION GOAL = 0.001
Info: BABY STEP SIZE = 0.01
Info: TINY STEP SIZE = 1e-06
Info: PARTICLE MESH EWALD (PME) ACTIVE
Info: PME TOLERANCE               1e-06
Info: PME EWALD COEFFICIENT       0.257952
Info: PME INTERPOLATION ORDER     4
Info: PME GRID DIMENSIONS         80 96 80
Info: PME MAXIMUM GRID SPACING    1
Info: FULL ELECTROSTATIC EVALUATION FREQUENCY      2
Info: USING VERLET I (r-RESPA) MTS SCHEME.
Info: C1 SPLITTING OF LONG RANGE ELECTROSTATICS
Info: PLACING ATOMS IN PATCHES BY HYDROGEN GROUPS
Info: RIGID BONDS TO HYDROGEN : ALL
Info:         ERROR TOLERANCE : 1e-05
Info:          MAX ITERATIONS : 100
Info: RIGID WATER USING SETTLE ALGORITHM
Info: RANDOM NUMBER SEED     1503692024
Info: USE HYDROGEN BONDS?    NO
Info: Using AMBER format force field!
Info: AMBER PARM FILE        ../build/complex.top
Info: COORDINATE PDB         ../build/complex.pdb
Info: Exclusions in PARM file will be ignored!
Info: SCNB (VDW SCALING)     2
Info: USING ARITHMETIC MEAN TO COMBINE L-J SIGMA PARAMETERS
Info: SUMMARY OF PARAMETERS:
Info: 71 BONDS
Info: 145 ANGLES
Info: 76 DIHEDRAL
Info: 0 IMPROPER
Info: 0 CROSSTERM
Info: 0 VDW
Info: 190 VDW_PAIRS
Info: 0 NBTHOLE_PAIRS
Info: STRUCTURE SUMMARY:
Info: 49394 ATOMS
Info: 49448 BONDS
Info: 8698 ANGLES
Info: 18780 DIHEDRALS
Info: 0 IMPROPERS
Info: 0 CROSSTERMS
Info: 0 EXCLUSIONS
Info: 2336 CONSTRAINTS
Info: 47058 RIGID BONDS
Info: 101124 DEGREES OF FREEDOM
Info: 17225 HYDROGEN GROUPS
Info: 4 ATOMS IN LARGEST HYDROGEN GROUP
Info: 17225 MIGRATION GROUPS
Info: 4 ATOMS IN LARGEST MIGRATION GROUP
Info: TOTAL MASS = 301478 amu
Info: TOTAL CHARGE = 1.00115e-05 e
Info: MASS DENSITY = 0.935846 g/cm^3
Info: ATOM DENSITY = 0.0923345 atoms/A^3
Info: ADDED 70656 IMPLICIT EXCLUSIONS
Info: NONBONDED TABLE R-SQUARED SPACING: 0.0625
Info: NONBONDED TABLE SIZE: 769 POINTS
Info: REMOVING COM VELOCITY 0 0 0
TCL: Minimizing for 100 steps
ETITLE: TS BOND ANGLE DIHED IMPRP ELECT VDW BOUNDARY MISC KINETIC TOTAL TEMP POTENTIAL TOTAL3 TEMPAVG PRESSURE GPRESSURE VOLUME PRESSAVG GPRESSAVG
ENERGY: 0 155.4176 1012.2698 2855.7272 0.0000 -154496.7913 207729.2052 0.0468 0.0000 0.0000 57255.8753 0.0000 57255.8753 57255.8753 0.0000 116350.2532 86546.1670 534946.2959 116350.2532 86546.1670
ENERGY: 20 304.7535 935.7910 2893.4663 0.0000 -158672.9392 17936.6600 143.9453 0.0000 0.0000 -136458.3231 0.0000 -136458.3231 -136458.3231 0.0000 16523.9394 -239.4550 534946.2959 16523.9394 -239.4550
ENERGY: 40 198.7440 799.5726 2896.9273 0.0000 -162811.4547 16417.9532 221.3030 0.0000 0.0000 -142276.9546 0.0000 -142276.9546 -142276.9546 0.0000 15011.2698 -2135.4705 534946.2959 15011.2698 -2135.4705
ENERGY: 60 130.5282 715.3440 2898.2166 0.0000 -167496.1592 15446.7536 315.2797 0.0000 0.0000 -147990.0372 0.0000 -147990.0372 -147990.0372 0.0000 13793.8832 -3799.3994 534946.2959 13793.8832 -3799.3994
ENERGY: 80 431.2746 765.6311 2904.3785 0.0000 -169937.5295 15121.1524 372.0121 0.0000 0.0000 -150343.0808 0.0000 -150343.0808 -150343.0808 0.0000 13270.3305 -4577.2458 534946.2959 13270.3305 -4577.2458
ENERGY: 100 129.7139 708.0649 2904.2780 0.0000 -171050.0666 15018.6536 384.2000 0.0000 0.0000 -151905.1563 0.0000 -151905.1563 -151905.1563 0.0000 13092.9128 -4843.6317 534946.2959 13092.9128 -4843.6317
TCL: Setting parameter constraintScaling to 5.0
TCL: Minimizing for 100 steps
ETITLE: TS BOND ANGLE DIHED IMPRP ELECT VDW BOUNDARY MISC KINETIC TOTAL TEMP POTENTIAL TOTAL3 TEMPAVG PRESSURE GPRESSURE VOLUME PRESSAVG GPRESSAVG
ENERGY: 100 129.7139 708.0649 2904.2780 0.0000 -171050.0666 15018.6536 192.1000 0.0000 0.0000 -152097.2563 0.0000 -152097.2563 -152097.2563 0.0000 13703.5080 -22944.4546 534946.2959 13703.5080 -22944.4546
ENERGY: 120 118.6819 680.2876 2909.9066 0.0000 -172396.3132 14830.1207 259.9549 0.0000 0.0000 -153597.3615 0.0000 -153597.3615 -153597.3615 0.0000 13320.9475 -4756.3070 534946.2959 13320.9475 -4756.3070
ENERGY: 140 109.1489 671.1473 2912.0863 0.0000 -174830.2355 14716.1441 337.7299 0.0000 0.0000 -156083.9790 0.0000 -156083.9790 -156083.9790 0.0000 12908.9624 -5423.1404 534946.2959 12908.9624 -5423.1404
ENERGY: 160 125.8502 667.1493 2914.1927 0.0000 -175967.0576 14735.1346 362.9189 0.0000 0.0000 -157161.8120 0.0000 -157161.8120 -157161.8120 0.0000 12806.8954 -5636.7545 534946.2959 12806.8954 -5636.7545
ENERGY: 180 303.5101 659.6807 2917.2964 0.0000 -177408.6806 14815.0123 395.3819 0.0000 0.0000 -158317.7991 0.0000 -158317.7991 -158317.7991 0.0000 12699.3165 -5893.7830 534946.2959 12699.3165 -5893.7830
ENERGY: 200 109.2123 628.4817 2923.3593 0.0000 -179544.1501 15071.2061 441.8902 0.0000 0.0000 -160370.0005 0.0000 -160370.0005 -160370.0005 0.0000 12659.9897 -6154.7258 534946.2959 12659.9897 -6154.7258
TCL: Setting parameter constraintScaling to 2.5
TCL: Minimizing for 100 steps
ETITLE: TS BOND ANGLE DIHED IMPRP ELECT VDW BOUNDARY MISC KINETIC TOTAL TEMP POTENTIAL TOTAL3 TEMPAVG PRESSURE GPRESSURE VOLUME PRESSAVG GPRESSAVG
ENERGY: 200 109.2123 628.4817 2923.3593 0.0000 -179544.1501 15071.2061 220.9451 0.0000 0.0000 -160590.9456 0.0000 -160590.9456 -160590.9456 0.0000 13208.4191 -25273.8978 534946.2959 13208.4191 -25273.8978
ENERGY: 220 275.2054 652.1474 2925.2591 0.0000 -180396.2160 15108.9340 288.0037 0.0000 0.0000 -161146.6663 0.0000 -161146.6663 -161146.6663 0.0000 12999.8902 -5914.2917 534946.2959 12999.8902 -5914.2917
ENERGY: 240 144.5055 629.0459 2922.0899 0.0000 -181649.9034 15308.6995 331.4998 0.0000 0.0000 -162314.0628 0.0000 -162314.0628 -162314.0628 0.0000 12968.7365 -6075.3047 534946.2959 12968.7365 -6075.3047
ENERGY: 260 238.7509 648.3639 2922.1980 0.0000 -183611.4842 15753.3128 410.1032 0.0000 0.0000 -163638.7554 0.0000 -163638.7554 -163638.7554 0.0000 12997.7506 -6265.2279 534946.2959 12997.7506 -6265.2279
ENERGY: 280 182.8294 654.5663 2917.9309 0.0000 -184833.0478 16104.5271 431.2733 0.0000 0.0000 -164541.9208 0.0000 -164541.9208 -164541.9208 0.0000 13136.4020 -6268.3430 534946.2959 13136.4020 -6268.3430
ENERGY: 300 181.3719 672.7402 2923.2719 0.0000 -185742.4131 16392.5902 428.1586 0.0000 0.0000 -165144.2802 0.0000 -165144.2802 -165144.2802 0.0000 13254.5109 -6238.8551 534946.2959 13254.5109 -6238.8551
TCL: Setting parameter constraintScaling to 1.25
TCL: Minimizing for 100 steps
ETITLE: TS BOND ANGLE DIHED IMPRP ELECT VDW BOUNDARY MISC KINETIC TOTAL TEMP POTENTIAL TOTAL3 TEMPAVG PRESSURE GPRESSURE VOLUME PRESSAVG GPRESSAVG
ENERGY: 300 181.3719 672.7402 2923.2719 0.0000 -185742.4131 16392.5902 214.0793 0.0000 0.0000 -165358.3595 0.0000 -165358.3595 -165358.3595 0.0000 13670.2356 -26243.5939 534946.2959 13670.2356 -26243.5939
ENERGY: 320 164.8983 664.4598 2915.3216 0.0000 -186224.7968 16488.6838 249.6957 0.0000 0.0000 -165741.7375 0.0000 -165741.7375 -165741.7375 0.0000 13645.0737 -5911.7481 534946.2959 13645.0737 -5911.7481
ENERGY: 340 197.9743 679.0662 2911.1635 0.0000 -187465.1611 16822.8936 332.7727 0.0000 0.0000 -166521.2908 0.0000 -166521.2908 -166521.2908 0.0000 13598.5123 -6086.8862 534946.2959 13598.5123 -6086.8862
ENERGY: 360 147.6969 663.3767 2904.6862 0.0000 -188283.2518 17090.1342 352.1906 0.0000 0.0000 -167125.1672 0.0000 -167125.1672 -167125.1672 0.0000 13741.2280 -6053.8095 534946.2959 13741.2280 -6053.8095
ENERGY: 380 153.0335 669.8492 2914.7404 0.0000 -189118.3586 17430.4119 326.9182 0.0000 0.0000 -167623.4055 0.0000 -167623.4055 -167623.4055 0.0000 13949.2968 -5918.1030 534946.2959 13949.2968 -5918.1030
ENERGY: 400 144.0998 660.2025 2926.6727 0.0000 -190437.0777 17968.8785 328.7940 0.0000 0.0000 -168408.4303 0.0000 -168408.4303 -168408.4303 0.0000 14269.4899 -5775.7059 534946.2959 14269.4899 -5775.7059
TCL: Setting parameter constraintScaling to 0.625
TCL: Minimizing for 100 steps
ETITLE: TS BOND ANGLE DIHED IMPRP ELECT VDW BOUNDARY MISC KINETIC TOTAL TEMP POTENTIAL TOTAL3 TEMPAVG PRESSURE GPRESSURE VOLUME PRESSAVG GPRESSAVG
ENERGY: 400 144.0998 660.2025 2926.6727 0.0000 -190437.0777 17968.8785 164.3970 0.0000 0.0000 -168572.8272 0.0000 -168572.8272 -168572.8272 0.0000 14550.0177 -26485.0923 534946.2959 14550.0177 -26485.0923
ENERGY: 420 240.0246 722.7966 2900.6108 0.0000 -191066.6693 18085.0050 218.7331 0.0000 0.0000 -168899.4992 0.0000 -168899.4992 -168899.4992 0.0000 14422.1156 -5711.5790 534946.2959 14422.1156 -5711.5790
ENERGY: 440 188.4001 681.2929 2900.2848 0.0000 -191503.7446 18219.4968 242.6629 0.0000 0.0000 -169271.6071 0.0000 -169271.6071 -169271.6071 0.0000 14388.0221 -5749.8255 534946.2959 14388.0221 -5749.8255
ENERGY: 460 208.4415 721.4374 2897.8887 0.0000 -192320.5590 18499.2781 267.8608 0.0000 0.0000 -169725.6524 0.0000 -169725.6524 -169725.6524 0.0000 14534.6557 -5719.6700 534946.2959 14534.6557 -5719.6700
ENERGY: 480 170.0936 672.6439 2902.9452 0.0000 -193089.0589 18855.8347 258.0974 0.0000 0.0000 -170229.4440 0.0000 -170229.4440 -170229.4440 0.0000 14726.3474 -5592.6845 534946.2959 14726.3474 -5592.6845
ENERGY: 500 199.0154 728.4095 2937.1283 0.0000 -194395.6633 19470.8356 267.6285 0.0000 0.0000 -170792.6460 0.0000 -170792.6460 -170792.6460 0.0000 15146.5440 -5338.3471 534946.2959 15146.5440 -5338.3471
TCL: Setting parameter constraintScaling to 0.3125
TCL: Minimizing for 100 steps
ETITLE: TS BOND ANGLE DIHED IMPRP ELECT VDW BOUNDARY MISC KINETIC TOTAL TEMP POTENTIAL TOTAL3 TEMPAVG PRESSURE GPRESSURE VOLUME PRESSAVG GPRESSAVG
ENERGY: 500 199.0154 728.4095 2937.1283 0.0000 -194395.6633 19470.8356 133.8143 0.0000 0.0000 -170926.4603 0.0000 -170926.4603 -170926.4603 0.0000 15335.3727 -26626.7029 534946.2959 15335.3727 -26626.7029
ENERGY: 520 161.0540 639.4604 2880.9248 0.0000 -194716.9646 19466.2916 158.3746 0.0000 0.0000 -171410.8593 0.0000 -171410.8593 -171410.8593 0.0000 15165.9777 -5344.5039 534946.2959 15165.9777 -5344.5039
ENERGY: 540 170.9947 673.6314 2879.2616 0.0000 -195157.0837 19592.1493 184.5469 0.0000 0.0000 -171656.4997 0.0000 -171656.4997 -171656.4997 0.0000 15079.3141 -5470.3982 534946.2959 15079.3141 -5470.3982
ENERGY: 560 161.0834 674.9627 2878.6012 0.0000 -195426.8504 19676.2508 191.3989 0.0000 0.0000 -171844.5534 0.0000 -171844.5534 -171844.5534 0.0000 15159.1085 -5433.2484 534946.2959 15159.1085 -5433.2484
ENERGY: 580 180.3287 674.5172 2889.7539 0.0000 -195963.8086 19927.6496 185.5825 0.0000 0.0000 -172105.9766 0.0000 -172105.9766 -172105.9766 0.0000 15326.5526 -5308.4510 534946.2959 15326.5526 -5308.4510
ENERGY: 600 181.7796 750.1840 2924.7300 0.0000 -197093.6730 20462.0241 198.2423 0.0000 0.0000 -172576.7131 0.0000 -172576.7131 -172576.7131 0.0000 15714.0991 -5070.7498 534946.2959 15714.0991 -5070.7498
TCL: Setting parameter constraintScaling to 0.15625
TCL: Minimizing for 100 steps
ETITLE: TS BOND ANGLE DIHED IMPRP ELECT VDW BOUNDARY MISC KINETIC TOTAL TEMP POTENTIAL TOTAL3 TEMPAVG PRESSURE GPRESSURE VOLUME PRESSAVG GPRESSAVG
ENERGY: 600 181.7796 750.1840 2924.7300 0.0000 -197093.6730 20462.0241 99.1211 0.0000 0.0000 -172675.8342 0.0000 -172675.8342 -172675.8342 0.0000 15830.8691 -26761.8253 534946.2959 15830.8691 -26761.8253
ENERGY: 620 175.7609 679.7622 2869.0828 0.0000 -197444.5560 20446.6449 116.8455 0.0000 0.0000 -173156.4597 0.0000 -173156.4597 -173156.4597 0.0000 15623.9422 -5198.0215 534946.2959 15623.9422 -5198.0215
ENERGY: 640 172.9679 678.2309 2867.4509 0.0000 -197683.4010 20534.9830 124.2457 0.0000 0.0000 -173305.5228 0.0000 -173305.5228 -173305.5228 0.0000 15605.8834 -5238.4905 534946.2959 15605.8834 -5238.4905
ENERGY: 660 164.4786 693.4593 2863.1612 0.0000 -198501.4476 20820.8089 136.2658 0.0000 0.0000 -173823.2738 0.0000 -173823.2738 -173823.2738 0.0000 15767.9825 -5177.7987 534946.2959 15767.9825 -5177.7987
ENERGY: 680 174.8266 666.7866 2852.6048 0.0000 -198805.1506 20961.1725 135.8007 0.0000 0.0000 -174013.9595 0.0000 -174013.9595 -174013.9595 0.0000 15856.9799 -5117.5331 534946.2959 15856.9799 -5117.5331
ENERGY: 700 161.6345 704.2762 2883.3372 0.0000 -199606.5748 21356.2690 140.1722 0.0000 0.0000 -174360.8857 0.0000 -174360.8857 -174360.8857 0.0000 16121.7640 -4941.1593 534946.2959 16121.7640 -4941.1593
TCL: Setting parameter constraintScaling to 0.078125
TCL: Minimizing for 100 steps
ETITLE: TS BOND ANGLE DIHED IMPRP ELECT VDW BOUNDARY MISC KINETIC TOTAL TEMP POTENTIAL TOTAL3 TEMPAVG PRESSURE GPRESSURE VOLUME PRESSAVG GPRESSAVG
ENERGY: 700 161.6345 704.2762 2883.3372 0.0000 -199606.5748 21356.2690 70.0861 0.0000 0.0000 -174430.9719 0.0000 -174430.9719 -174430.9719 0.0000 16193.0534 -26997.9304 534946.2959 16193.0534 -26997.9304
ENERGY: 720 159.0744 653.3396 2847.3825 0.0000 -199835.0397 21338.2319 74.1054 0.0000 0.0000 -174762.9059 0.0000 -174762.9059 -174762.9059 0.0000 16120.1020 -4972.3369 534946.2959 16120.1020 -4972.3369
ENERGY: 740 168.3845 693.2240 2850.5569 0.0000 -200110.7179 21417.5364 79.9894 0.0000 0.0000 -174901.0266 0.0000 -174901.0266 -174901.0266 0.0000 16114.4543 -5021.1871 534946.2959 16114.4543 -5021.1871
ENERGY: 760 180.6002 686.7818 2847.9632 0.0000 -200517.7290 21569.7241 86.0018 0.0000 0.0000 -175146.6579 0.0000 -175146.6579 -175146.6579 0.0000 16148.5437 -5029.8252 534946.2959 16148.5437 -5029.8252
ENERGY: 780 173.1586 659.8719 2841.4024 0.0000 -200715.6896 21650.5076 82.7458 0.0000 0.0000 -175308.0035 0.0000 -175308.0035 -175308.0035 0.0000 16249.0106 -4941.4327 534946.2959 16249.0106 -4941.4327
ENERGY: 800 194.1460 711.9156 2876.1710 0.0000 -201387.7493 21978.8784 86.2255 0.0000 0.0000 -175540.4128 0.0000 -175540.4128 -175540.4128 0.0000 16451.5018 -4821.0448 534946.2959 16451.5018 -4821.0448
TCL: Setting parameter constraintScaling to 0.0390625
TCL: Minimizing for 100 steps
ETITLE: TS BOND ANGLE DIHED IMPRP ELECT VDW BOUNDARY MISC KINETIC TOTAL TEMP POTENTIAL TOTAL3 TEMPAVG PRESSURE GPRESSURE VOLUME PRESSAVG GPRESSAVG
ENERGY: 800 194.1460 711.9156 2876.1710 0.0000 -201387.7493 21978.8784 43.1128 0.0000 0.0000 -175583.5256 0.0000 -175583.5256 -175583.5256 0.0000 16492.0764 -27124.8495 534946.2959 16492.0764 -27124.8495
ENERGY: 820 306.5824 707.3465 2834.7424 0.0000 -201611.9644 22006.7763 45.7230 0.0000 0.0000 -175710.7938 0.0000 -175710.7938 -175710.7938 0.0000 16422.6432 -4865.2371 534946.2959 16422.6432 -4865.2371
ENERGY: 840 384.5437 759.1358 2854.1482 0.0000 -202108.5132 22190.3707 50.7766 0.0000 0.0000 -175869.5382 0.0000 -175869.5382 -175869.5382 0.0000 16448.1102 -4908.8655 534946.2959 16448.1102 -4908.8655
ENERGY: 860 168.6018 662.7393 2830.8283 0.0000 -201985.6643 22134.9049 48.4855 0.0000 0.0000 -176140.1043 0.0000 -176140.1043 -176140.1043 0.0000 16487.9428 -4861.3740 534946.2959 16487.9428 -4861.3740
ENERGY: 880 240.6946 705.4223 2860.9670 0.0000 -202714.0916 22485.0783 50.1977 0.0000 0.0000 -176371.7317 0.0000 -176371.7317 -176371.7317 0.0000 16735.0806 -4694.3091 534946.2959 16735.0806 -4694.3091
ENERGY: 900 158.5824 679.3345 2844.5735 0.0000 -203337.4696 22770.5336 53.5112 0.0000 0.0000 -176830.9343 0.0000 -176830.9343 -176830.9343 0.0000 16904.2725 -4603.1675 534946.2959 16904.2725 -4603.1675
TCL: Setting parameter constraintScaling to 0.01953125
TCL: Minimizing for 100 steps
ETITLE: TS BOND ANGLE DIHED IMPRP ELECT VDW BOUNDARY MISC KINETIC TOTAL TEMP POTENTIAL TOTAL3 TEMPAVG PRESSURE GPRESSURE VOLUME PRESSAVG GPRESSAVG
ENERGY: 900 158.5824 679.3345 2844.5735 0.0000 -203337.4696 22770.5336 26.7556 0.0000 0.0000 -176857.6899 0.0000 -176857.6899 -176857.6899 0.0000 16927.4128 -27159.2083 534946.2959 16927.4128 -27159.2083
ENERGY: 920 163.4893 662.4314 2821.1442 0.0000 -203522.0465 22787.5110 27.9327 0.0000 0.0000 -177059.5379 0.0000 -177059.5379 -177059.5379 0.0000 16878.2307 -4653.1459 534946.2959 16878.2307 -4653.1459
ENERGY: 940 178.1778 677.6969 2823.7444 0.0000 -203733.9733 22868.8802 29.2120 0.0000 0.0000 -177156.2621 0.0000 -177156.2621 -177156.2621 0.0000 16867.3858 -4685.7111 534946.2959 16867.3858 -4685.7111
ENERGY: 960 189.6669 684.0743 2820.0059 0.0000 -204326.9478 23121.8172 31.0516 0.0000 0.0000 -177480.3318 0.0000 -177480.3318 -177480.3318 0.0000 16986.3514 -4634.4088 534946.2959 16986.3514 -4634.4088
ENERGY: 980 167.1992 667.7383 2814.7288 0.0000 -204565.2133 23227.0350 31.4764 0.0000 0.0000 -177657.0355 0.0000 -177657.0355 -177657.0355 0.0000 17065.3480 -4587.0104 534946.2959 17065.3480 -4587.0104
ENERGY: 1000 171.2349 665.8120 2815.2585 0.0000 -204718.2503 23303.9248 31.5747 0.0000 0.0000 -177730.4454 0.0000 -177730.4454 -177730.4454 0.0000 17116.4311 -4553.4475 534946.2959 17116.4311 -4553.4475
TCL: Setting parameter constraintScaling to 0
TCL: Minimizing for 5000 steps
ETITLE: TS BOND ANGLE DIHED IMPRP ELECT VDW BOUNDARY MISC KINETIC TOTAL TEMP POTENTIAL TOTAL3 TEMPAVG PRESSURE GPRESSURE VOLUME PRESSAVG GPRESSAVG
ENERGY: 1000 171.2349 665.8120 2815.2585 0.0000 -204718.2503 23303.9248 0.0000 0.0000 0.0000 -177762.0200 0.0000 -177762.0200 -177762.0200 0.0000 17142.0334 -27270.5784 534946.2959 17142.0334 -27270.5784
ENERGY: 2000 169.9661 660.7932 2800.1728 0.0000 -214816.8277 27744.5032 0.0000 0.0000 0.0000 -183441.3924 0.0000 -183441.3924 -183441.3924 0.0000 19495.4539 -3311.2877 534946.2959 19495.4539 -3311.2877
ENERGY: 3000 166.9369 666.0139 2798.1353 0.0000 -217535.5780 28904.3457 0.0000 0.0000 0.0000 -185000.1461 0.0000 -185000.1461 -185000.1461 0.0000 20126.2898 -2962.9395 534946.2959 20126.2898 -2962.9395
ENERGY: 4000 171.6791 668.4093 2791.1747 0.0000 -218967.2424 29534.3800 0.0000 0.0000 0.0000 -185801.5992 0.0000 -185801.5992 -185801.5992 0.0000 20460.3223 -2779.3562 534946.2959 20460.3223 -2779.3562
ENERGY: 5000 164.7690 663.6975 2787.5506 0.0000 -219624.6864 29770.5222 0.0000 0.0000 0.0000 -186238.1471 0.0000 -186238.1471 -186238.1471 0.0000 20579.7956 -2735.9390 534946.2959 20579.7956 -2735.9390
ENERGY: 6000 166.2982 666.4256 2788.2426 0.0000 -220053.9179 29943.3783 0.0000 0.0000 0.0000 -186489.5732 0.0000 -186489.5732 -186489.5732 0.0000 20670.8292 -2683.3753 534946.2959 20670.8292 -2683.3753
