Info: SIMULATION PARAMETERS:
Info: TIMESTEP               2
Info: NUMBER OF STEPS        0
Info: STEPS PER CYCLE        10
Info: PERIODIC CELL BASIS 1  72.449 0 0
Info: PERIODIC CELL BASIS 2  0 93.247 0
Info: PERIODIC CELL BASIS 3  0 0 79.185
Info: PERIODIC CELL CENTER   -0.248 -0.156 -0.047
Info: WRAPPING WATERS AROUND PERIODIC BOUNDARIES ON OUTPUT.
Info: WRAPPING ALL CLUSTERS AROUND PERIODIC BOUNDARIES ON OUTPUT.
Info: FIRST LDB TIMESTEP     50
Info: LAST LDB TIMESTEP     -1
Info: HOM BACKGROUND SCALING 1
Info: PME BACKGROUND SCALING 1
Info: MIN ATOMS PER PATCH    40
Info: INITIAL TEMPERATURE    0
Info: CENTER OF MASS MOVING INITIALLY? NO
Info: DIELECTRIC             1
Info: EXCLUDE                SCALED ONE-FOUR
Info: 1-4 ELECTROSTATICS SCALED BY 0.833333
Info: MODIFIED 1-4 VDW PARAMETERS WILL BE USED
Info: NO DCD TRAJECTORY OUTPUT
Info: NO EXTENDED SYSTEM TRAJECTORY OUTPUT
Info: NO VELOCITY DCD OUTPUT
Info: NO FORCE DCD OUTPUT
Info: OUTPUT FILENAME        ../replicas/rep25/equilibration/eq0
Info: NO RESTART FILE
Info: SWITCHING ACTIVE
Info: SWITCHING ON           10
Info: SWITCHING OFF          12
Info: PAIRLIST DISTANCE      13.5
Info: PAIRLIST SHRINK RATE   0.01
Info: PAIRLIST GROW RATE     0.01
Info: PAIRLIST TRIGGER       0.3
Info: PAIRLISTS PER CYCLE    2
Info: PAIRLISTS ENABLED
Info: MARGIN                 0
Info: HYDROGEN GROUP CUTOFF  2.5
Info: PATCH DIMENSION        16
Info: ENERGY OUTPUT STEPS    500
Info: CROSSTERM ENERGY INCLUDED IN DIHEDRAL
Info: TIMING OUTPUT STEPS    5000
Info: PRESSURE OUTPUT STEPS  500
Info: HARMONIC CONSTRAINTS ACTIVE
Info: HARMONIC CONS EXP      2
Info: HARMONIC CONS SCALING  10
Info: CONJUGATE GRADIENT MINIMIZATION ACTIVE
Info: LINE MINIMIZATION GOAL = 0.001
Info: BABY STEP SIZE = 0.01
Info: TINY STEP SIZE = 1e-06
Info: PARTICLE MESH EWALD (PME) ACTIVE
Info: PME TOLERANCE               1e-06
Info: PME EWALD COEFFICIENT       0.257952
Info: PME INTERPOLATION ORDER     4
Info: PME GRID DIMENSIONS         80 96 80
Info: PME MAXIMUM GRID SPACING    1
Info: FULL ELECTROSTATIC EVALUATION FREQUENCY      2
Info: USING VERLET I (r-RESPA) MTS SCHEME.
Info: C1 SPLITTING OF LONG RANGE ELECTROSTATICS
Info: PLACING ATOMS IN PATCHES BY HYDROGEN GROUPS
Info: RIGID BONDS TO HYDROGEN : ALL
Info:         ERROR TOLERANCE : 1e-05
Info:          MAX ITERATIONS : 100
Info: RIGID WATER USING SETTLE ALGORITHM
Info: RANDOM NUMBER SEED     1503692482
Info: USE HYDROGEN BONDS?    NO
Info: Using AMBER format force field!
Info: AMBER PARM FILE        ../build/complex.top
Info: COORDINATE PDB         ../build/complex.pdb
Info: Exclusions in PARM file will be ignored!
Info: SCNB (VDW SCALING)     2
Info: USING ARITHMETIC MEAN TO COMBINE L-J SIGMA PARAMETERS
Info: SUMMARY OF PARAMETERS:
Info: 71 BONDS
Info: 145 ANGLES
Info: 76 DIHEDRAL
Info: 0 IMPROPER
Info: 0 CROSSTERM
Info: 0 VDW
Info: 190 VDW_PAIRS
Info: 0 NBTHOLE_PAIRS
Info: STRUCTURE SUMMARY:
Info: 49394 ATOMS
Info: 49448 BONDS
Info: 8698 ANGLES
Info: 18780 DIHEDRALS
Info: 0 IMPROPERS
Info: 0 CROSSTERMS
Info: 0 EXCLUSIONS
Info: 2336 CONSTRAINTS
Info: 47058 RIGID BONDS
Info: 101124 DEGREES OF FREEDOM
Info: 17225 HYDROGEN GROUPS
Info: 4 ATOMS IN LARGEST HYDROGEN GROUP
Info: 17225 MIGRATION GROUPS
Info: 4 ATOMS IN LARGEST MIGRATION GROUP
Info: TOTAL MASS = 301478 amu
Info: TOTAL CHARGE = 1.00115e-05 e
Info: MASS DENSITY = 0.935846 g/cm^3
Info: ATOM DENSITY = 0.0923345 atoms/A^3
Info: ADDED 70656 IMPLICIT EXCLUSIONS
Info: NONBONDED TABLE R-SQUARED SPACING: 0.0625
Info: NONBONDED TABLE SIZE: 769 POINTS
Info: REMOVING COM VELOCITY 0 0 0
TCL: Minimizing for 100 steps
ETITLE: TS BOND ANGLE DIHED IMPRP ELECT VDW BOUNDARY MISC KINETIC TOTAL TEMP POTENTIAL TOTAL3 TEMPAVG PRESSURE GPRESSURE VOLUME PRESSAVG GPRESSAVG
ENERGY: 0 155.4176 1012.2698 2855.7272 0.0000 -154496.7911 207729.2052 0.0468 0.0000 0.0000 57255.8755 0.0000 57255.8755 57255.8755 0.0000 116350.2532 86546.1670 534946.2959 116350.2532 86546.1670
ENERGY: 20 304.7573 935.7914 2893.4663 0.0000 -158672.9423 17936.6585 143.9455 0.0000 0.0000 -136458.3232 0.0000 -136458.3232 -136458.3232 0.0000 16523.9377 -239.4569 534946.2959 16523.9377 -239.4569
ENERGY: 40 198.7448 799.5728 2896.9273 0.0000 -162811.4509 16417.9543 221.3030 0.0000 0.0000 -142276.9488 0.0000 -142276.9488 -142276.9488 0.0000 15011.2710 -2135.4689 534946.2959 15011.2710 -2135.4689
ENERGY: 60 130.5284 715.3440 2898.2166 0.0000 -167496.1529 15446.7545 315.2796 0.0000 0.0000 -147990.0298 0.0000 -147990.0298 -147990.0298 0.0000 13793.8846 -3799.3974 534946.2959 13793.8846 -3799.3974
ENERGY: 80 431.2719 765.6304 2904.3787 0.0000 -169937.5327 15121.1519 372.0124 0.0000 0.0000 -150343.0874 0.0000 -150343.0874 -150343.0874 0.0000 13270.3300 -4577.2452 534946.2959 13270.3300 -4577.2452
ENERGY: 100 129.7128 708.0644 2904.2781 0.0000 -171050.0626 15018.6540 384.2000 0.0000 0.0000 -151905.1534 0.0000 -151905.1534 -151905.1534 0.0000 13092.9135 -4843.6300 534946.2959 13092.9135 -4843.6300
TCL: Setting parameter constraintScaling to 5.0
TCL: Minimizing for 100 steps
ETITLE: TS BOND ANGLE DIHED IMPRP ELECT VDW BOUNDARY MISC KINETIC TOTAL TEMP POTENTIAL TOTAL3 TEMPAVG PRESSURE GPRESSURE VOLUME PRESSAVG GPRESSAVG
ENERGY: 100 129.7128 708.0644 2904.2781 0.0000 -171050.0626 15018.6540 192.1000 0.0000 0.0000 -152097.2533 0.0000 -152097.2533 -152097.2533 0.0000 13703.5086 -22944.4533 534946.2959 13703.5086 -22944.4533
ENERGY: 120 118.6817 680.2874 2909.9066 0.0000 -172396.3083 14830.1208 259.9548 0.0000 0.0000 -153597.3570 0.0000 -153597.3570 -153597.3570 0.0000 13320.9482 -4756.3059 534946.2959 13320.9482 -4756.3059
ENERGY: 140 109.1473 671.1467 2912.0864 0.0000 -174830.2573 14716.1438 337.7308 0.0000 0.0000 -156084.0023 0.0000 -156084.0023 -156084.0023 0.0000 12908.9598 -5423.1449 534946.2959 12908.9598 -5423.1449
ENERGY: 160 125.8503 667.1514 2914.1925 0.0000 -175967.0404 14735.1341 362.9186 0.0000 0.0000 -157161.7936 0.0000 -157161.7936 -157161.7936 0.0000 12806.8954 -5637.2182 534946.2959 12806.8954 -5637.2182
ENERGY: 180 303.4844 659.6821 2917.2966 0.0000 -177408.7495 14815.0178 395.3833 0.0000 0.0000 -158317.8853 0.0000 -158317.8853 -158317.8853 0.0000 12699.3140 -5894.2892 534946.2959 12699.3140 -5894.2892
ENERGY: 200 109.2095 628.4699 2923.3578 0.0000 -179543.7734 15071.1429 441.8792 0.0000 0.0000 -160369.7140 0.0000 -160369.7140 -160369.7140 0.0000 12659.9898 -6155.1752 534946.2959 12659.9898 -6155.1752
TCL: Setting parameter constraintScaling to 2.5
TCL: Minimizing for 100 steps
ETITLE: TS BOND ANGLE DIHED IMPRP ELECT VDW BOUNDARY MISC KINETIC TOTAL TEMP POTENTIAL TOTAL3 TEMPAVG PRESSURE GPRESSURE VOLUME PRESSAVG GPRESSAVG
ENERGY: 200 109.2095 628.4699 2923.3578 0.0000 -179543.7734 15071.1429 220.9396 0.0000 0.0000 -160590.6536 0.0000 -160590.6536 -160590.6536 0.0000 13208.4118 -25274.3115 534946.2959 13208.4118 -25274.3115
ENERGY: 220 275.0510 652.0388 2925.2524 0.0000 -180395.1049 15108.8172 287.9313 0.0000 0.0000 -161146.0142 0.0000 -161146.0142 -161146.0142 0.0000 13000.0585 -5914.4666 534946.2959 13000.0585 -5914.4666
ENERGY: 240 144.4842 629.0345 2922.0893 0.0000 -181649.8209 15308.6491 331.5264 0.0000 0.0000 -162314.0374 0.0000 -162314.0374 -162314.0374 0.0000 12968.6539 -6075.8581 534946.2959 12968.6539 -6075.8581
ENERGY: 260 238.6194 648.2940 2922.1921 0.0000 -183610.8121 15753.0619 410.1528 0.0000 0.0000 -163638.4918 0.0000 -163638.4918 -163638.4918 0.0000 12997.5517 -6265.7965 534946.2959 12997.5517 -6265.7965
ENERGY: 280 149.5158 673.2712 2920.5879 0.0000 -184622.7269 16043.7804 433.0051 0.0000 0.0000 -164402.5665 0.0000 -164402.5665 -164402.5665 0.0000 13100.7189 -6286.8806 534946.2959 13100.7189 -6286.8806
ENERGY: 300 181.1475 672.5115 2923.2674 0.0000 -185739.7487 16391.7244 428.1172 0.0000 0.0000 -165142.9807 0.0000 -165142.9807 -165142.9807 0.0000 13254.1499 -6239.3399 534946.2959 13254.1499 -6239.3399
TCL: Setting parameter constraintScaling to 1.25
TCL: Minimizing for 100 steps
ETITLE: TS BOND ANGLE DIHED IMPRP ELECT VDW BOUNDARY MISC KINETIC TOTAL TEMP POTENTIAL TOTAL3 TEMPAVG PRESSURE GPRESSURE VOLUME PRESSAVG GPRESSAVG
ENERGY: 300 181.1475 672.5115 2923.2674 0.0000 -185739.7487 16391.7244 214.0586 0.0000 0.0000 -165357.0393 0.0000 -165357.0393 -165357.0393 0.0000 13669.8702 -26243.7470 534946.2959 13669.8702 -26243.7470
ENERGY: 320 164.9941 664.4835 2915.3164 0.0000 -186223.0171 16488.0010 249.7561 0.0000 0.0000 -165740.4660 0.0000 -165740.4660 -165740.4660 0.0000 13644.6087 -5912.4444 534946.2959 13644.6087 -5912.4444
ENERGY: 340 197.5758 678.5567 2911.1798 0.0000 -187457.6774 16820.4695 332.3602 0.0000 0.0000 -166517.5354 0.0000 -166517.5354 -166517.5354 0.0000 13598.2504 -6086.6838 534946.2959 13598.2504 -6086.6838
ENERGY: 360 147.7543 663.3882 2904.7261 0.0000 -188274.8011 17087.3839 351.6853 0.0000 0.0000 -167119.8633 0.0000 -167119.8633 -167119.8633 0.0000 13740.8908 -6053.6042 534946.2959 13740.8908 -6053.6042
ENERGY: 380 175.4153 660.2043 2910.3716 0.0000 -188909.8142 17344.5491 330.2936 0.0000 0.0000 -167488.9803 0.0000 -167488.9803 -167488.9803 0.0000 13889.0860 -5956.7180 534946.2959 13889.0860 -5956.7180
ENERGY: 400 155.4472 679.8777 2926.0849 0.0000 -189982.3558 17779.4464 325.0993 0.0000 0.0000 -168116.4003 0.0000 -168116.4003 -168116.4003 0.0000 14153.6925 -5839.7468 534946.2959 14153.6925 -5839.7468
TCL: Setting parameter constraintScaling to 0.625
TCL: Minimizing for 100 steps
ETITLE: TS BOND ANGLE DIHED IMPRP ELECT VDW BOUNDARY MISC KINETIC TOTAL TEMP POTENTIAL TOTAL3 TEMPAVG PRESSURE GPRESSURE VOLUME PRESSAVG GPRESSAVG
ENERGY: 400 155.4472 679.8777 2926.0849 0.0000 -189982.3558 17779.4464 162.5496 0.0000 0.0000 -168278.9500 0.0000 -168278.9500 -168278.9500 0.0000 14430.3551 -26495.5339 534946.2959 14430.3551 -26495.5339
ENERGY: 420 260.9685 677.6933 2899.2888 0.0000 -190484.1788 17873.7085 208.1662 0.0000 0.0000 -168564.3535 0.0000 -168564.3535 -168564.3535 0.0000 14270.5876 -5762.4127 534946.2959 14270.5876 -5762.4127
ENERGY: 440 170.4464 696.5078 2899.7955 0.0000 -190860.6145 17985.7136 235.1845 0.0000 0.0000 -168872.9666 0.0000 -168872.9666 -168872.9666 0.0000 14270.5723 -5805.7788 534946.2959 14270.5723 -5805.7788
ENERGY: 460 223.7650 741.9760 2907.8465 0.0000 -192399.7797 18528.0858 320.1466 0.0000 0.0000 -169677.9596 0.0000 -169677.9596 -169677.9596 0.0000 14371.1363 -5879.6279 534946.2959 14371.1363 -5879.6279
ENERGY: 480 182.2603 691.1871 2895.2717 0.0000 -193218.8680 18841.3521 337.3495 0.0000 0.0000 -170271.4473 0.0000 -170271.4473 -170271.4473 0.0000 14523.0812 -5805.7920 534946.2959 14523.0812 -5805.7920
ENERGY: 500 147.2758 674.5112 2892.1602 0.0000 -193730.6692 19099.9754 293.8378 0.0000 0.0000 -170622.9088 0.0000 -170622.9088 -170622.9088 0.0000 14796.7843 -5607.6501 534946.2959 14796.7843 -5607.6501
TCL: Setting parameter constraintScaling to 0.3125
TCL: Minimizing for 100 steps
ETITLE: TS BOND ANGLE DIHED IMPRP ELECT VDW BOUNDARY MISC KINETIC TOTAL TEMP POTENTIAL TOTAL3 TEMPAVG PRESSURE GPRESSURE VOLUME PRESSAVG GPRESSAVG
ENERGY: 500 147.2758 674.5112 2892.1602 0.0000 -193730.6692 19099.9754 146.9189 0.0000 0.0000 -170769.8278 0.0000 -170769.8278 -170769.8278 0.0000 14991.8174 -26806.8535 534946.2959 14991.8174 -26806.8535
ENERGY: 520 373.7262 687.0524 2882.4666 0.0000 -194202.4716 19223.1892 166.4864 0.0000 0.0000 -170869.5507 0.0000 -170869.5507 -170869.5507 0.0000 14961.8162 -5490.3556 534946.2959 14961.8162 -5490.3556
ENERGY: 540 193.5835 666.7288 2878.3764 0.0000 -194768.6538 19424.6348 187.3001 0.0000 0.0000 -171418.0303 0.0000 -171418.0303 -171418.0303 0.0000 14998.9302 -5502.6136 534946.2959 14998.9302 -5502.6136
ENERGY: 560 153.4298 661.1480 2876.2374 0.0000 -195082.5090 19550.0171 182.3771 0.0000 0.0000 -171659.2996 0.0000 -171659.2996 -171659.2996 0.0000 15126.3263 -5419.3885 534946.2959 15126.3263 -5419.3885
ENERGY: 580 247.3954 723.3739 2907.5708 0.0000 -196923.7668 20376.9164 205.0236 0.0000 0.0000 -172463.4866 0.0000 -172463.4866 -172463.4866 0.0000 15594.4403 -5173.6709 534946.2959 15594.4403 -5173.6709
ENERGY: 600 158.7589 657.9008 2869.7566 0.0000 -197788.7904 20687.5339 230.0930 0.0000 0.0000 -173184.7472 0.0000 -173184.7472 -173184.7472 0.0000 15721.1525 -5145.3126 534946.2959 15721.1525 -5145.3126
TCL: Setting parameter constraintScaling to 0.15625
TCL: Minimizing for 100 steps
ETITLE: TS BOND ANGLE DIHED IMPRP ELECT VDW BOUNDARY MISC KINETIC TOTAL TEMP POTENTIAL TOTAL3 TEMPAVG PRESSURE GPRESSURE VOLUME PRESSAVG GPRESSAVG
ENERGY: 600 158.7589 657.9008 2869.7566 0.0000 -197788.7904 20687.5339 115.0465 0.0000 0.0000 -173299.7937 0.0000 -173299.7937 -173299.7937 0.0000 15848.0688 -26912.8985 534946.2959 15848.0688 -26912.8985
ENERGY: 620 194.2893 668.8426 2855.7245 0.0000 -198122.3495 20756.3727 126.9585 0.0000 0.0000 -173520.1618 0.0000 -173520.1618 -173520.1618 0.0000 15807.3248 -5104.8916 534946.2959 15807.3248 -5104.8916
ENERGY: 640 181.5481 665.5337 2858.0894 0.0000 -198555.3183 20899.7411 136.9373 0.0000 0.0000 -173813.4686 0.0000 -173813.4686 -173813.4686 0.0000 15788.2159 -5150.4718 534946.2959 15788.2159 -5150.4718
ENERGY: 660 248.0650 684.9275 2855.1796 0.0000 -198923.1537 21022.3593 142.0271 0.0000 0.0000 -173970.5952 0.0000 -173970.5952 -173970.5952 0.0000 15834.2313 -5146.7076 534946.2959 15834.2313 -5146.7076
ENERGY: 680 167.3906 651.1988 2849.3399 0.0000 -199236.5398 21139.5168 140.3286 0.0000 0.0000 -174288.7650 0.0000 -174288.7650 -174288.7650 0.0000 15974.6524 -5060.8674 534946.2959 15974.6524 -5060.8674
ENERGY: 700 152.2811 652.7714 2856.2399 0.0000 -200006.7431 21451.8265 145.2140 0.0000 0.0000 -174748.4102 0.0000 -174748.4102 -174748.4102 0.0000 16154.4827 -4967.6747 534946.2959 16154.4827 -4967.6747
TCL: Setting parameter constraintScaling to 0.078125
TCL: Minimizing for 100 steps
ETITLE: TS BOND ANGLE DIHED IMPRP ELECT VDW BOUNDARY MISC KINETIC TOTAL TEMP POTENTIAL TOTAL3 TEMPAVG PRESSURE GPRESSURE VOLUME PRESSAVG GPRESSAVG
ENERGY: 700 152.2811 652.7714 2856.2399 0.0000 -200006.7431 21451.8265 72.6070 0.0000 0.0000 -174821.0172 0.0000 -174821.0172 -174821.0172 0.0000 16227.6491 -27067.7779 534946.2959 16227.6491 -27067.7779
ENERGY: 720 176.6853 669.4578 2841.1414 0.0000 -200296.2031 21515.2158 79.5439 0.0000 0.0000 -175014.1590 0.0000 -175014.1590 -175014.1590 0.0000 16175.6472 -4980.1289 534946.2959 16175.6472 -4980.1289
ENERGY: 740 273.7542 703.0625 2843.7036 0.0000 -200785.9059 21702.8702 87.1982 0.0000 0.0000 -175175.3171 0.0000 -175175.3171 -175175.3171 0.0000 16210.3321 -4998.7197 534946.2959 16210.3321 -4998.7197
ENERGY: 760 215.2863 676.7375 2836.1183 0.0000 -201616.0278 22019.2075 94.3196 0.0000 0.0000 -175774.3586 0.0000 -175774.3586 -175774.3586 0.0000 16395.9730 -4909.4168 534946.2959 16395.9730 -4909.4168
ENERGY: 780 164.8325 655.3782 2831.9139 0.0000 -201734.9707 22063.4784 94.7284 0.0000 0.0000 -175924.6392 0.0000 -175924.6392 -175924.6392 0.0000 16436.4203 -4882.0520 534946.2959 16436.4203 -4882.0520
ENERGY: 800 185.2338 659.9452 2832.0980 0.0000 -202178.8178 22254.4651 95.2943 0.0000 0.0000 -176151.7815 0.0000 -176151.7815 -176151.7815 0.0000 16545.5178 -4830.3911 534946.2959 16545.5178 -4830.3911
TCL: Setting parameter constraintScaling to 0.0390625
TCL: Minimizing for 100 steps
ETITLE: TS BOND ANGLE DIHED IMPRP ELECT VDW BOUNDARY MISC KINETIC TOTAL TEMP POTENTIAL TOTAL3 TEMPAVG PRESSURE GPRESSURE VOLUME PRESSAVG GPRESSAVG
ENERGY: 800 185.2338 659.9452 2832.0980 0.0000 -202178.8178 22254.4651 47.6471 0.0000 0.0000 -176199.4286 0.0000 -176199.4286 -176199.4286 0.0000 16588.0785 -27224.4016 534946.2959 16588.0785 -27224.4016
ENERGY: 820 282.1358 689.7358 2833.8099 0.0000 -202487.2833 22355.6469 50.1348 0.0000 0.0000 -176275.8201 0.0000 -176275.8201 -176275.8201 0.0000 16601.1520 -4817.4694 534946.2959 16601.1520 -4817.4694
ENERGY: 840 172.2643 663.3071 2825.9678 0.0000 -202758.5426 22465.8002 51.9513 0.0000 0.0000 -176579.2518 0.0000 -176579.2518 -176579.2518 0.0000 16690.3610 -4750.0159 534946.2959 16690.3610 -4750.0159
ENERGY: 860 165.7559 659.7288 2823.3806 0.0000 -203208.8121 22654.1378 54.6348 0.0000 0.0000 -176851.1742 0.0000 -176851.1742 -176851.1742 0.0000 16757.9504 -4730.5983 534946.2959 16757.9504 -4730.5983
ENERGY: 880 170.7851 654.1309 2819.9610 0.0000 -203379.4575 22724.2336 54.6903 0.0000 0.0000 -176955.6566 0.0000 -176955.6566 -176955.6566 0.0000 16815.6325 -4696.9674 534946.2959 16815.6325 -4696.9674
ENERGY: 900 157.0626 655.3162 2826.7279 0.0000 -203940.3856 22985.7565 56.0550 0.0000 0.0000 -177259.4673 0.0000 -177259.4673 -177259.4673 0.0000 16974.1327 -4606.1630 534946.2959 16974.1327 -4606.1630
TCL: Setting parameter constraintScaling to 0.01953125
TCL: Minimizing for 100 steps
ETITLE: TS BOND ANGLE DIHED IMPRP ELECT VDW BOUNDARY MISC KINETIC TOTAL TEMP POTENTIAL TOTAL3 TEMPAVG PRESSURE GPRESSURE VOLUME PRESSAVG GPRESSAVG
ENERGY: 900 157.0626 655.3162 2826.7279 0.0000 -203940.3856 22985.7565 28.0275 0.0000 0.0000 -177287.4948 0.0000 -177287.4948 -177287.4948 0.0000 16997.9775 -27241.0062 534946.2959 16997.9775 -27241.0062
ENERGY: 920 173.6619 651.1453 2816.6396 0.0000 -204142.4336 23046.8565 29.2236 0.0000 0.0000 -177424.9067 0.0000 -177424.9067 -177424.9067 0.0000 17002.7950 -4598.9951 534946.2959 17002.7950 -4598.9951
ENERGY: 940 177.4288 667.8280 2815.2717 0.0000 -204469.5675 23185.3482 30.6848 0.0000 0.0000 -177593.0059 0.0000 -177593.0059 -177593.0059 0.0000 17051.3256 -4582.9543 534946.2959 17051.3256 -4582.9543
ENERGY: 960 163.0262 652.0165 2815.1893 0.0000 -204731.8374 23311.5031 30.7878 0.0000 0.0000 -177759.3145 0.0000 -177759.3145 -177759.3145 0.0000 17143.4602 -4525.5088 534946.2959 17143.4602 -4525.5088
ENERGY: 980 173.7035 660.4801 2820.9431 0.0000 -205082.6575 23484.8221 31.5123 0.0000 0.0000 -177911.1965 0.0000 -177911.1965 -177911.1965 0.0000 17261.8086 -4456.9533 534946.2959 17261.8086 -4456.9533
ENERGY: 1000 164.9377 664.8958 2810.0510 0.0000 -205226.5978 23514.2903 32.5185 0.0000 0.0000 -178039.9044 0.0000 -178039.9044 -178039.9044 0.0000 17240.1153 -4489.5657 534946.2959 17240.1153 -4489.5657
TCL: Setting parameter constraintScaling to 0
TCL: Minimizing for 5000 steps
ETITLE: TS BOND ANGLE DIHED IMPRP ELECT VDW BOUNDARY MISC KINETIC TOTAL TEMP POTENTIAL TOTAL3 TEMPAVG PRESSURE GPRESSURE VOLUME PRESSAVG GPRESSAVG
ENERGY: 1000 164.9377 664.8958 2810.0510 0.0000 -205226.5978 23514.2903 0.0000 0.0000 0.0000 -178072.4229 0.0000 -178072.4229 -178072.4229 0.0000 17266.1265 -27274.4306 534946.2959 17266.1265 -27274.4306
ENERGY: 2000 174.9990 666.7987 2802.9786 0.0000 -214526.5449 27609.2371 0.0000 0.0000 0.0000 -183272.5315 0.0000 -183272.5315 -183272.5315 0.0000 19426.3801 -3349.6109 534946.2959 19426.3801 -3349.6109
ENERGY: 3000 167.9438 665.8334 2798.8395 0.0000 -217204.8970 28739.4295 0.0000 0.0000 0.0000 -184832.8508 0.0000 -184832.8508 -184832.8508 0.0000 20035.7094 -3020.0252 534946.2959 20035.7094 -3020.0252
ENERGY: 4000 187.7282 672.6262 2794.1557 0.0000 -218759.8204 29447.7484 0.0000 0.0000 0.0000 -185657.5619 0.0000 -185657.5619 -185657.5619 0.0000 20434.0967 -2792.1313 534946.2959 20434.0967 -2792.1313
ENERGY: 5000 165.6287 664.0633 2793.6069 0.0000 -219564.3229 29789.7895 0.0000 0.0000 0.0000 -186151.2346 0.0000 -186151.2346 -186151.2346 0.0000 20599.8392 -2706.7190 534946.2959 20599.8392 -2706.7190
ENERGY: 6000 164.7618 663.2372 2794.1597 0.0000 -219954.2582 29927.5244 0.0000 0.0000 0.0000 -186404.5750 0.0000 -186404.5750 -186404.5750 0.0000 20668.3922 -2675.3478 534946.2959 20668.3922 -2675.3478
