Info: SIMULATION PARAMETERS:
Info: TIMESTEP               2
Info: NUMBER OF STEPS        0
Info: STEPS PER CYCLE        10
Info: PERIODIC CELL BASIS 1  72.449 0 0
Info: PERIODIC CELL BASIS 2  0 93.247 0
Info: PERIODIC CELL BASIS 3  0 0 79.185
Info: PERIODIC CELL CENTER   -0.248 -0.156 -0.047
Info: WRAPPING WATERS AROUND PERIODIC BOUNDARIES ON OUTPUT.
Info: WRAPPING ALL CLUSTERS AROUND PERIODIC BOUNDARIES ON OUTPUT.
Info: FIRST LDB TIMESTEP     50
Info: LAST LDB TIMESTEP     -1
Info: HOM BACKGROUND SCALING 1
Info: PME BACKGROUND SCALING 1
Info: MIN ATOMS PER PATCH    40
Info: INITIAL TEMPERATURE    0
Info: CENTER OF MASS MOVING INITIALLY? NO
Info: DIELECTRIC             1
Info: EXCLUDE                SCALED ONE-FOUR
Info: 1-4 ELECTROSTATICS SCALED BY 0.833333
Info: MODIFIED 1-4 VDW PARAMETERS WILL BE USED
Info: NO DCD TRAJECTORY OUTPUT
Info: NO EXTENDED SYSTEM TRAJECTORY OUTPUT
Info: NO VELOCITY DCD OUTPUT
Info: NO FORCE DCD OUTPUT
Info: OUTPUT FILENAME        ../replicas/rep3/equilibration/eq0
Info: NO RESTART FILE
Info: SWITCHING ACTIVE
Info: SWITCHING ON           10
Info: SWITCHING OFF          12
Info: PAIRLIST DISTANCE      13.5
Info: PAIRLIST SHRINK RATE   0.01
Info: PAIRLIST GROW RATE     0.01
Info: PAIRLIST TRIGGER       0.3
Info: PAIRLISTS PER CYCLE    2
Info: PAIRLISTS ENABLED
Info: MARGIN                 0
Info: HYDROGEN GROUP CUTOFF  2.5
Info: PATCH DIMENSION        16
Info: ENERGY OUTPUT STEPS    500
Info: CROSSTERM ENERGY INCLUDED IN DIHEDRAL
Info: TIMING OUTPUT STEPS    5000
Info: PRESSURE OUTPUT STEPS  500
Info: HARMONIC CONSTRAINTS ACTIVE
Info: HARMONIC CONS EXP      2
Info: HARMONIC CONS SCALING  10
Info: CONJUGATE GRADIENT MINIMIZATION ACTIVE
Info: LINE MINIMIZATION GOAL = 0.001
Info: BABY STEP SIZE = 0.01
Info: TINY STEP SIZE = 1e-06
Info: PARTICLE MESH EWALD (PME) ACTIVE
Info: PME TOLERANCE               1e-06
Info: PME EWALD COEFFICIENT       0.257952
Info: PME INTERPOLATION ORDER     4
Info: PME GRID DIMENSIONS         80 96 80
Info: PME MAXIMUM GRID SPACING    1
Info: FULL ELECTROSTATIC EVALUATION FREQUENCY      2
Info: USING VERLET I (r-RESPA) MTS SCHEME.
Info: C1 SPLITTING OF LONG RANGE ELECTROSTATICS
Info: PLACING ATOMS IN PATCHES BY HYDROGEN GROUPS
Info: RIGID BONDS TO HYDROGEN : ALL
Info:         ERROR TOLERANCE : 1e-05
Info:          MAX ITERATIONS : 100
Info: RIGID WATER USING SETTLE ALGORITHM
Info: RANDOM NUMBER SEED     1503695653
Info: USE HYDROGEN BONDS?    NO
Info: Using AMBER format force field!
Info: AMBER PARM FILE        ../build/complex.top
Info: COORDINATE PDB         ../build/complex.pdb
Info: Exclusions in PARM file will be ignored!
Info: SCNB (VDW SCALING)     2
Info: USING ARITHMETIC MEAN TO COMBINE L-J SIGMA PARAMETERS
Info: SUMMARY OF PARAMETERS:
Info: 71 BONDS
Info: 145 ANGLES
Info: 76 DIHEDRAL
Info: 0 IMPROPER
Info: 0 CROSSTERM
Info: 0 VDW
Info: 190 VDW_PAIRS
Info: 0 NBTHOLE_PAIRS
Info: STRUCTURE SUMMARY:
Info: 49394 ATOMS
Info: 49448 BONDS
Info: 8698 ANGLES
Info: 18780 DIHEDRALS
Info: 0 IMPROPERS
Info: 0 CROSSTERMS
Info: 0 EXCLUSIONS
Info: 2336 CONSTRAINTS
Info: 47058 RIGID BONDS
Info: 101124 DEGREES OF FREEDOM
Info: 17225 HYDROGEN GROUPS
Info: 4 ATOMS IN LARGEST HYDROGEN GROUP
Info: 17225 MIGRATION GROUPS
Info: 4 ATOMS IN LARGEST MIGRATION GROUP
Info: TOTAL MASS = 301478 amu
Info: TOTAL CHARGE = 1.00115e-05 e
Info: MASS DENSITY = 0.935846 g/cm^3
Info: ATOM DENSITY = 0.0923345 atoms/A^3
Info: ADDED 70656 IMPLICIT EXCLUSIONS
Info: NONBONDED TABLE R-SQUARED SPACING: 0.0625
Info: NONBONDED TABLE SIZE: 769 POINTS
Info: REMOVING COM VELOCITY 0 0 0
TCL: Minimizing for 100 steps
ETITLE: TS BOND ANGLE DIHED IMPRP ELECT VDW BOUNDARY MISC KINETIC TOTAL TEMP POTENTIAL TOTAL3 TEMPAVG PRESSURE GPRESSURE VOLUME PRESSAVG GPRESSAVG
ENERGY: 0 155.4176 1012.2698 2855.7272 0.0000 -154496.7912 207729.2052 0.0468 0.0000 0.0000 57255.8754 0.0000 57255.8754 57255.8754 0.0000 116350.2532 86546.1670 534946.2959 116350.2532 86546.1670
ENERGY: 20 304.7560 935.7912 2893.4663 0.0000 -158672.9411 17936.6591 143.9455 0.0000 0.0000 -136458.3231 0.0000 -136458.3231 -136458.3231 0.0000 16523.9383 -239.4562 534946.2959 16523.9383 -239.4562
ENERGY: 40 198.7448 799.5728 2896.9273 0.0000 -162811.4525 16417.9539 221.3030 0.0000 0.0000 -142276.9508 0.0000 -142276.9508 -142276.9508 0.0000 15011.2705 -2135.4695 534946.2959 15011.2705 -2135.4695
ENERGY: 60 130.5282 715.3440 2898.2166 0.0000 -167496.1560 15446.7541 315.2796 0.0000 0.0000 -147990.0334 0.0000 -147990.0334 -147990.0334 0.0000 13793.8839 -3799.3983 534946.2959 13793.8839 -3799.3983
ENERGY: 80 431.2714 765.6305 2904.3786 0.0000 -169937.5250 15121.1529 372.0122 0.0000 0.0000 -150343.0795 0.0000 -150343.0795 -150343.0795 0.0000 13270.3318 -4577.2430 534946.2959 13270.3318 -4577.2430
ENERGY: 100 129.7144 708.0651 2904.2781 0.0000 -171050.0692 15018.6528 384.2001 0.0000 0.0000 -151905.1588 0.0000 -151905.1588 -151905.1588 0.0000 13092.9121 -4843.6326 534946.2959 13092.9121 -4843.6326
TCL: Setting parameter constraintScaling to 5.0
TCL: Minimizing for 100 steps
ETITLE: TS BOND ANGLE DIHED IMPRP ELECT VDW BOUNDARY MISC KINETIC TOTAL TEMP POTENTIAL TOTAL3 TEMPAVG PRESSURE GPRESSURE VOLUME PRESSAVG GPRESSAVG
ENERGY: 100 129.7144 708.0651 2904.2781 0.0000 -171050.0692 15018.6528 192.1000 0.0000 0.0000 -152097.2588 0.0000 -152097.2588 -152097.2588 0.0000 13703.5074 -22944.4558 534946.2959 13703.5074 -22944.4558
ENERGY: 120 118.6817 680.2875 2909.9066 0.0000 -172396.3197 14830.1200 259.9551 0.0000 0.0000 -153597.3688 0.0000 -153597.3688 -153597.3688 0.0000 13320.9464 -4756.3088 534946.2959 13320.9464 -4756.3088
ENERGY: 140 109.1481 671.1462 2912.0864 0.0000 -174830.3067 14716.1435 337.7321 0.0000 0.0000 -156084.0504 0.0000 -156084.0504 -156084.0504 0.0000 12908.9530 -5423.1568 534946.2959 12908.9530 -5423.1568
ENERGY: 160 303.0024 691.2546 2915.1767 0.0000 -176082.4786 14739.2599 369.8359 0.0000 0.0000 -157063.9491 0.0000 -157063.9491 -157063.9491 0.0000 12780.5602 -5682.4741 534946.2959 12780.5602 -5682.4741
ENERGY: 180 182.1908 640.7501 2917.0631 0.0000 -177289.3428 14805.0519 391.8961 0.0000 0.0000 -158352.3908 0.0000 -158352.3908 -158352.3908 0.0000 12715.3634 -5871.6806 534946.2959 12715.3634 -5871.6806
ENERGY: 200 200.8103 672.8085 2923.8884 0.0000 -179263.0202 15029.6741 438.8836 0.0000 0.0000 -159996.9553 0.0000 -159996.9553 -159996.9553 0.0000 12652.1291 -6148.7473 534946.2959 12652.1291 -6148.7473
TCL: Setting parameter constraintScaling to 2.5
TCL: Minimizing for 100 steps
ETITLE: TS BOND ANGLE DIHED IMPRP ELECT VDW BOUNDARY MISC KINETIC TOTAL TEMP POTENTIAL TOTAL3 TEMPAVG PRESSURE GPRESSURE VOLUME PRESSAVG GPRESSAVG
ENERGY: 200 200.8103 672.8085 2923.8884 0.0000 -179263.0201 15029.6741 219.4418 0.0000 0.0000 -160216.3970 0.0000 -160216.3970 -160216.3970 0.0000 13194.5974 -25233.7692 534946.2959 13194.5974 -25233.7692
ENERGY: 220 129.4394 648.4250 2922.2171 0.0000 -180050.5525 15072.6006 269.1082 0.0000 0.0000 -161008.7622 0.0000 -161008.7622 -161008.7622 0.0000 13073.4314 -5822.5266 534946.2959 13073.4314 -5822.5266
ENERGY: 240 166.8021 631.3669 2922.8570 0.0000 -181876.9046 15336.5292 358.8971 0.0000 0.0000 -162460.4524 0.0000 -162460.4524 -162460.4524 0.0000 12913.7784 -6152.8562 534946.2959 12913.7784 -6152.8562
ENERGY: 260 364.6459 681.2931 2926.7300 0.0000 -184021.9003 15849.4449 463.6034 0.0000 0.0000 -163736.1830 0.0000 -163736.1830 -163736.1830 0.0000 12946.5146 -6367.8831 534946.2959 12946.5146 -6367.8831
ENERGY: 280 203.5106 654.9851 2926.4639 0.0000 -186025.6619 16581.8093 535.1682 0.0000 0.0000 -165123.7248 0.0000 -165123.7248 -165123.7248 0.0000 13152.2046 -6366.4150 534946.2959 13152.2046 -6366.4150
ENERGY: 300 129.0545 634.4057 2921.8518 0.0000 -187696.5856 17313.4551 557.1567 0.0000 0.0000 -166140.6618 0.0000 -166140.6618 -166140.6618 0.0000 13543.3105 -6171.1770 534946.2959 13543.3105 -6171.1770
TCL: Setting parameter constraintScaling to 1.25
TCL: Minimizing for 100 steps
ETITLE: TS BOND ANGLE DIHED IMPRP ELECT VDW BOUNDARY MISC KINETIC TOTAL TEMP POTENTIAL TOTAL3 TEMPAVG PRESSURE GPRESSURE VOLUME PRESSAVG GPRESSAVG
ENERGY: 300 129.0545 634.4057 2921.8518 0.0000 -187696.5856 17313.4551 278.5783 0.0000 0.0000 -166419.2402 0.0000 -166419.2402 -166419.2402 0.0000 14034.5613 -26322.9842 534946.2959 14034.5613 -26322.9842
ENERGY: 320 135.3694 632.0323 2912.3797 0.0000 -188177.5321 17273.2787 319.0120 0.0000 0.0000 -166905.4601 0.0000 -166905.4601 -166905.4601 0.0000 13913.6106 -5866.4356 534946.2959 13913.6106 -5866.4356
ENERGY: 340 402.1684 658.2244 2900.7240 0.0000 -189971.9753 17685.6514 396.3422 0.0000 0.0000 -167928.8648 0.0000 -167928.8648 -167928.8648 0.0000 13923.8484 -6053.5187 534946.2959 13923.8484 -6053.5187
ENERGY: 360 159.3148 629.9058 2903.0284 0.0000 -190330.6128 17828.3277 383.8681 0.0000 0.0000 -168426.1681 0.0000 -168426.1681 -168426.1681 0.0000 14026.8846 -5991.9792 534946.2959 14026.8846 -5991.9792
ENERGY: 380 127.0629 649.7158 2904.1378 0.0000 -192108.7632 18702.7801 365.3597 0.0000 0.0000 -169359.7068 0.0000 -169359.7068 -169359.7068 0.0000 14607.8510 -5635.5251 534946.2959 14607.8510 -5635.5251
ENERGY: 400 173.0062 656.8452 2909.9276 0.0000 -194467.0841 19904.6671 419.8640 0.0000 0.0000 -170402.7740 0.0000 -170402.7740 -170402.7740 0.0000 15098.6450 -5394.1955 534946.2959 15098.6450 -5394.1955
TCL: Setting parameter constraintScaling to 0.625
TCL: Minimizing for 100 steps
ETITLE: TS BOND ANGLE DIHED IMPRP ELECT VDW BOUNDARY MISC KINETIC TOTAL TEMP POTENTIAL TOTAL3 TEMPAVG PRESSURE GPRESSURE VOLUME PRESSAVG GPRESSAVG
ENERGY: 400 173.0062 656.8452 2909.9276 0.0000 -194467.0841 19904.6671 209.9320 0.0000 0.0000 -170612.7060 0.0000 -170612.7060 -170612.7060 0.0000 15405.3063 -26584.8994 534946.2959 15405.3063 -26584.8994
ENERGY: 420 146.9283 634.6961 2881.2923 0.0000 -194740.1129 19691.8627 244.5145 0.0000 0.0000 -171140.8190 0.0000 -171140.8190 -171140.8190 0.0000 15215.6800 -5309.2925 534946.2959 15215.6800 -5309.2925
ENERGY: 440 155.4789 644.3196 2883.9503 0.0000 -195052.4520 19682.8330 276.3768 0.0000 0.0000 -171409.4934 0.0000 -171409.4934 -171409.4934 0.0000 15118.5319 -5433.3499 534946.2959 15118.5319 -5433.3499
ENERGY: 460 176.7776 650.5459 2881.9703 0.0000 -195617.4579 19841.0954 311.9471 0.0000 0.0000 -171755.1217 0.0000 -171755.1217 -171755.1217 0.0000 15158.1314 -5466.5805 534946.2959 15158.1314 -5466.5805
ENERGY: 480 345.0678 714.6750 2888.7757 0.0000 -196338.0994 20163.3275 308.4108 0.0000 0.0000 -171917.8426 0.0000 -171917.8426 -171917.8426 0.0000 15312.3783 -5405.4203 534946.2959 15312.3783 -5405.4203
ENERGY: 500 162.3438 647.2926 2879.5111 0.0000 -196692.0078 20339.4729 306.6101 0.0000 0.0000 -172356.7772 0.0000 -172356.7772 -172356.7772 0.0000 15417.8191 -5320.7885 534946.2959 15417.8191 -5320.7885
TCL: Setting parameter constraintScaling to 0.3125
TCL: Minimizing for 100 steps
ETITLE: TS BOND ANGLE DIHED IMPRP ELECT VDW BOUNDARY MISC KINETIC TOTAL TEMP POTENTIAL TOTAL3 TEMPAVG PRESSURE GPRESSURE VOLUME PRESSAVG GPRESSAVG
ENERGY: 500 162.3438 647.2926 2879.5111 0.0000 -196692.0078 20339.4729 153.3051 0.0000 0.0000 -172510.0823 0.0000 -172510.0823 -172510.0823 0.0000 15609.4898 -26905.5687 534946.2959 15609.4898 -26905.5687
ENERGY: 520 161.6127 650.1761 2872.7901 0.0000 -197020.6233 20357.5864 174.0439 0.0000 0.0000 -172804.4142 0.0000 -172804.4142 -172804.4142 0.0000 15544.7212 -5228.8636 534946.2959 15544.7212 -5228.8636
ENERGY: 540 178.6161 673.6070 2871.1523 0.0000 -197590.1372 20550.8558 208.4177 0.0000 0.0000 -173107.4882 0.0000 -173107.4882 -173107.4882 0.0000 15597.5808 -5254.4302 534946.2959 15597.5808 -5254.4302
ENERGY: 560 155.9625 658.8592 2868.9648 0.0000 -197843.0579 20615.1845 203.1173 0.0000 0.0000 -173340.9696 0.0000 -173340.9696 -173340.9696 0.0000 15626.5300 -5244.3069 534946.2959 15626.5300 -5244.3069
ENERGY: 580 154.6361 646.4096 2870.1078 0.0000 -198314.4830 20883.6809 199.2502 0.0000 0.0000 -173560.3984 0.0000 -173560.3984 -173560.3984 0.0000 15813.8179 -5106.0128 534946.2959 15813.8179 -5106.0128
ENERGY: 600 219.8344 695.7674 2869.9885 0.0000 -199591.1729 21426.7468 226.1802 0.0000 0.0000 -174152.6555 0.0000 -174152.6555 -174152.6555 0.0000 16040.2548 -5051.1241 534946.2959 16040.2548 -5051.1241
TCL: Setting parameter constraintScaling to 0.15625
TCL: Minimizing for 100 steps
ETITLE: TS BOND ANGLE DIHED IMPRP ELECT VDW BOUNDARY MISC KINETIC TOTAL TEMP POTENTIAL TOTAL3 TEMPAVG PRESSURE GPRESSURE VOLUME PRESSAVG GPRESSAVG
ENERGY: 600 219.8344 695.7674 2869.9885 0.0000 -199591.1729 21426.7468 113.0901 0.0000 0.0000 -174265.7456 0.0000 -174265.7456 -174265.7456 0.0000 16162.9911 -27045.1352 534946.2959 16162.9911 -27045.1352
ENERGY: 620 154.5815 643.3411 2852.6194 0.0000 -199819.2206 21389.8532 122.3778 0.0000 0.0000 -174656.4476 0.0000 -174656.4476 -174656.4476 0.0000 16136.7078 -4976.1061 534946.2959 16136.7078 -4976.1061
ENERGY: 640 176.0973 665.7196 2852.4628 0.0000 -200274.7332 21519.7369 138.8687 0.0000 0.0000 -174921.8480 0.0000 -174921.8480 -174921.8480 0.0000 16125.5697 -5028.5329 534946.2959 16125.5697 -5028.5329
ENERGY: 660 208.5720 683.2710 2849.5599 0.0000 -200753.3646 21685.8705 145.9848 0.0000 0.0000 -175180.1064 0.0000 -175180.1064 -175180.1064 0.0000 16207.5265 -4999.3375 534946.2959 16207.5265 -4999.3375
ENERGY: 680 163.8338 657.4720 2846.1861 0.0000 -200925.6577 21766.6658 143.7890 0.0000 0.0000 -175347.7111 0.0000 -175347.7111 -175347.7111 0.0000 16281.9298 -4954.7474 534946.2959 16281.9298 -4954.7474
ENERGY: 700 155.8049 661.5747 2849.0588 0.0000 -201490.1112 22080.0762 144.7917 0.0000 0.0000 -175598.8050 0.0000 -175598.8050 -175598.8050 0.0000 16467.3244 -4839.1261 534946.2959 16467.3244 -4839.1261
TCL: Setting parameter constraintScaling to 0.078125
TCL: Minimizing for 100 steps
ETITLE: TS BOND ANGLE DIHED IMPRP ELECT VDW BOUNDARY MISC KINETIC TOTAL TEMP POTENTIAL TOTAL3 TEMPAVG PRESSURE GPRESSURE VOLUME PRESSAVG GPRESSAVG
ENERGY: 700 155.8049 661.5747 2849.0588 0.0000 -201490.1112 22080.0762 72.3959 0.0000 0.0000 -175671.2008 0.0000 -175671.2008 -175671.2008 0.0000 16538.4926 -27130.0834 534946.2959 16538.4926 -27130.0834
ENERGY: 720 172.1453 682.3660 2840.7939 0.0000 -201746.3841 22067.1793 79.6062 0.0000 0.0000 -175904.2935 0.0000 -175904.2935 -175904.2935 0.0000 16462.1861 -4874.7162 534946.2959 16462.1861 -4874.7162
ENERGY: 740 172.1226 674.3863 2837.8680 0.0000 -202045.2470 22190.0473 86.1150 0.0000 0.0000 -176084.7077 0.0000 -176084.7077 -176084.7077 0.0000 16509.3867 -4861.3104 534946.2959 16509.3867 -4861.3104
ENERGY: 760 170.1061 659.3242 2835.1511 0.0000 -202204.6880 22238.5661 87.3008 0.0000 0.0000 -176214.2398 0.0000 -176214.2398 -176214.2398 0.0000 16527.2523 -4853.0582 534946.2959 16527.2523 -4853.0582
ENERGY: 780 160.9264 647.5131 2837.0301 0.0000 -202568.6796 22425.7100 86.1724 0.0000 0.0000 -176411.3275 0.0000 -176411.3275 -176411.3275 0.0000 16676.5199 -4753.0528 534946.2959 16676.5199 -4753.0528
ENERGY: 800 187.0624 652.3166 2835.3811 0.0000 -203221.2046 22706.7940 91.6957 0.0000 0.0000 -176747.9548 0.0000 -176747.9548 -176747.9548 0.0000 16811.6027 -4688.2121 534946.2959 16811.6027 -4688.2121
TCL: Setting parameter constraintScaling to 0.0390625
TCL: Minimizing for 100 steps
ETITLE: TS BOND ANGLE DIHED IMPRP ELECT VDW BOUNDARY MISC KINETIC TOTAL TEMP POTENTIAL TOTAL3 TEMPAVG PRESSURE GPRESSURE VOLUME PRESSAVG GPRESSAVG
ENERGY: 800 187.0624 652.3166 2835.3811 0.0000 -203221.2046 22706.7940 45.8479 0.0000 0.0000 -176793.8026 0.0000 -176793.8026 -176793.8026 0.0000 16852.3660 -27222.1699 534946.2959 16852.3660 -27222.1699
ENERGY: 820 164.9610 650.1536 2824.3036 0.0000 -203465.9391 22758.3606 48.9547 0.0000 0.0000 -177019.2056 0.0000 -177019.2056 -177019.2056 0.0000 16848.9703 -4683.3542 534946.2959 16848.9703 -4683.3542
ENERGY: 840 178.0798 669.4269 2825.7347 0.0000 -203786.8053 22896.8945 52.1357 0.0000 0.0000 -177164.5336 0.0000 -177164.5336 -177164.5336 0.0000 16886.4451 -4674.8346 534946.2959 16886.4451 -4674.8346
ENERGY: 860 166.0013 655.3850 2820.1076 0.0000 -203927.5274 22954.0550 51.7541 0.0000 0.0000 -177280.2244 0.0000 -177280.2244 -177280.2244 0.0000 16942.9272 -4639.1046 534946.2959 16942.9272 -4639.1046
ENERGY: 880 161.2263 658.7627 2830.1653 0.0000 -204373.0785 23196.7470 52.5155 0.0000 0.0000 -177473.6618 0.0000 -177473.6618 -177473.6618 0.0000 17087.4695 -4551.1439 534946.2959 17087.4695 -4551.1439
ENERGY: 900 155.9359 662.5777 2822.1560 0.0000 -205067.1538 23536.3694 56.4085 0.0000 0.0000 -177833.7063 0.0000 -177833.7063 -177833.7063 0.0000 17283.0236 -4441.4103 534946.2959 17283.0236 -4441.4103
TCL: Setting parameter constraintScaling to 0.01953125
TCL: Minimizing for 100 steps
ETITLE: TS BOND ANGLE DIHED IMPRP ELECT VDW BOUNDARY MISC KINETIC TOTAL TEMP POTENTIAL TOTAL3 TEMPAVG PRESSURE GPRESSURE VOLUME PRESSAVG GPRESSAVG
ENERGY: 900 155.9359 662.5777 2822.1560 0.0000 -205067.1538 23536.3694 28.2042 0.0000 0.0000 -177861.9105 0.0000 -177861.9105 -177861.9105 0.0000 17306.3627 -27211.9894 534946.2959 17306.3627 -27211.9894
ENERGY: 920 215.6699 666.7492 2814.7172 0.0000 -205259.6011 23551.0421 29.7758 0.0000 0.0000 -177981.6470 0.0000 -177981.6470 -177981.6470 0.0000 17273.0320 -4471.8005 534946.2959 17273.0320 -4471.8005
ENERGY: 940 171.2345 658.2487 2811.4371 0.0000 -205434.0330 23624.9798 30.8406 0.0000 0.0000 -178137.2924 0.0000 -178137.2924 -178137.2924 0.0000 17288.9579 -4471.3902 534946.2959 17288.9579 -4471.3902
ENERGY: 960 277.6770 675.2251 2813.8234 0.0000 -205711.8536 23762.3599 30.9707 0.0000 0.0000 -178151.7975 0.0000 -178151.7975 -178151.7975 0.0000 17379.5116 -4409.8928 534946.2959 17379.5116 -4409.8928
ENERGY: 980 168.0501 663.3888 2819.6970 0.0000 -206254.6345 24049.0308 32.4879 0.0000 0.0000 -178521.9798 0.0000 -178521.9798 -178521.9798 0.0000 17547.8805 -4314.6087 534946.2959 17547.8805 -4314.6087
ENERGY: 1000 161.2515 658.0919 2809.4175 0.0000 -206479.0112 24117.4173 33.5420 0.0000 0.0000 -178699.2910 0.0000 -178699.2910 -178699.2910 0.0000 17583.5605 -4303.1890 534946.2959 17583.5605 -4303.1890
TCL: Setting parameter constraintScaling to 0
TCL: Minimizing for 5000 steps
ETITLE: TS BOND ANGLE DIHED IMPRP ELECT VDW BOUNDARY MISC KINETIC TOTAL TEMP POTENTIAL TOTAL3 TEMPAVG PRESSURE GPRESSURE VOLUME PRESSAVG GPRESSAVG
ENERGY: 1000 161.2515 658.0919 2809.4175 0.0000 -206479.0112 24117.4173 0.0000 0.0000 0.0000 -178732.8329 0.0000 -178732.8329 -178732.8329 0.0000 17609.6607 -27238.2488 534946.2959 17609.6607 -27238.2488
ENERGY: 2000 168.5007 662.2396 2798.0048 0.0000 -215135.9690 27857.3497 0.0000 0.0000 0.0000 -183649.8742 0.0000 -183649.8742 -183649.8742 0.0000 19566.2650 -3290.8244 534946.2959 19566.2650 -3290.8244
ENERGY: 3000 165.3352 660.9099 2795.5133 0.0000 -217637.9224 28883.7374 0.0000 0.0000 0.0000 -185132.4267 0.0000 -185132.4267 -185132.4267 0.0000 20122.3944 -2968.9841 534946.2959 20122.3944 -2968.9841
ENERGY: 4000 164.0469 657.6350 2790.4763 0.0000 -218837.1747 29386.7171 0.0000 0.0000 0.0000 -185838.2993 0.0000 -185838.2993 -185838.2993 0.0000 20379.1034 -2846.5409 534946.2959 20379.1034 -2846.5409
ENERGY: 5000 164.5148 661.5359 2787.6390 0.0000 -219477.2343 29661.1476 0.0000 0.0000 0.0000 -186202.3972 0.0000 -186202.3972 -186202.3972 0.0000 20519.4989 -2777.4416 534946.2959 20519.4989 -2777.4416
ENERGY: 6000 165.0292 662.3216 2787.9654 0.0000 -219825.6743 29798.7698 0.0000 0.0000 0.0000 -186411.5884 0.0000 -186411.5884 -186411.5884 0.0000 20588.5016 -2737.7522 534946.2959 20588.5016 -2737.7522
