Info: SIMULATION PARAMETERS:
Info: TIMESTEP               1
Info: NUMBER OF STEPS        0
Info: STEPS PER CYCLE        10
Info: PERIODIC CELL BASIS 1  72.449 0 0
Info: PERIODIC CELL BASIS 2  0 93.247 0
Info: PERIODIC CELL BASIS 3  0 0 79.185
Info: PERIODIC CELL CENTER   -0.248 -0.156 -0.047
Info: WRAPPING WATERS AROUND PERIODIC BOUNDARIES ON OUTPUT.
Info: WRAPPING ALL CLUSTERS AROUND PERIODIC BOUNDARIES ON OUTPUT.
Info: FIRST LDB TIMESTEP     50
Info: LAST LDB TIMESTEP     -1
Info: HOM BACKGROUND SCALING 1
Info: PME BACKGROUND SCALING 1
Info: MIN ATOMS PER PATCH    40
Info: VELOCITY FILE          ../replicas/rep106/equilibration/eq1.vel
Info: CENTER OF MASS MOVING INITIALLY? NO
Info: DIELECTRIC             1
Info: EXCLUDE                SCALED ONE-FOUR
Info: 1-4 ELECTROSTATICS SCALED BY 0.833333
Info: MODIFIED 1-4 VDW PARAMETERS WILL BE USED
Info: DCD FILENAME           ../replicas/rep106/equilibration/eq2.dcd
Info: DCD FREQUENCY          5000
Info: DCD FIRST STEP         5000
Info: DCD FILE WILL CONTAIN UNIT CELL DATA
Info: XST FILENAME           ../replicas/rep106/equilibration/eq2.xst
Info: XST FREQUENCY          5000
Info: NO VELOCITY DCD OUTPUT
Info: NO FORCE DCD OUTPUT
Info: OUTPUT FILENAME        ../replicas/rep106/equilibration/eq2
Info: RESTART FILENAME       ../replicas/rep106/equilibration/eq2.restart
Info: RESTART FREQUENCY      5000
Info: BINARY RESTART FILES WILL BE USED
Info: SWITCHING ACTIVE
Info: SWITCHING ON           10
Info: SWITCHING OFF          12
Info: PAIRLIST DISTANCE      13.5
Info: PAIRLIST SHRINK RATE   0.01
Info: PAIRLIST GROW RATE     0.01
Info: PAIRLIST TRIGGER       0.3
Info: PAIRLISTS PER CYCLE    2
Info: PAIRLISTS ENABLED
Info: MARGIN                 0.48
Info: HYDROGEN GROUP CUTOFF  2.5
Info: PATCH DIMENSION        16.48
Info: ENERGY OUTPUT STEPS    500
Info: CROSSTERM ENERGY INCLUDED IN DIHEDRAL
Info: TIMING OUTPUT STEPS    5000
Info: PRESSURE OUTPUT STEPS  500
Info: HARMONIC CONSTRAINTS ACTIVE
Info: HARMONIC CONS EXP      2
Info: HARMONIC CONS SCALING  10
Info: LANGEVIN DYNAMICS ACTIVE
Info: LANGEVIN TEMPERATURE   300
Info: LANGEVIN USING BBK INTEGRATOR
Info: LANGEVIN DAMPING COEFFICIENT IS 5 INVERSE PS
Info: LANGEVIN DYNAMICS NOT APPLIED TO HYDROGENS
Info: BERENDSEN PRESSURE COUPLING ACTIVE
Info:     TARGET PRESSURE IS 1 BAR
Info:     COMPRESSIBILITY ESTIMATE IS 4.57e-05 BAR^(-1)
Info:     RELAXATION TIME IS 100 FS
Info:     APPLIED EVERY 2 STEPS
Info:     PRESSURE CONTROL IS GROUP-BASED
Info:       CELL FLUCTUATION IS ISOTROPIC
Info: PARTICLE MESH EWALD (PME) ACTIVE
Info: PME TOLERANCE               1e-06
Info: PME EWALD COEFFICIENT       0.257952
Info: PME INTERPOLATION ORDER     4
Info: PME GRID DIMENSIONS         80 96 80
Info: PME MAXIMUM GRID SPACING    1
Info: FULL ELECTROSTATIC EVALUATION FREQUENCY      2
Info: USING VERLET I (r-RESPA) MTS SCHEME.
Info: C1 SPLITTING OF LONG RANGE ELECTROSTATICS
Info: PLACING ATOMS IN PATCHES BY HYDROGEN GROUPS
Info: RIGID BONDS TO HYDROGEN : WATER
Info:         ERROR TOLERANCE : 1e-05
Info:          MAX ITERATIONS : 100
Info: RIGID WATER USING SETTLE ALGORITHM
Info: RANDOM NUMBER SEED     1503698634
Info: USE HYDROGEN BONDS?    NO
Info: Using AMBER format force field!
Info: AMBER PARM FILE        ../build/complex.top
Info: COORDINATE PDB         ../replicas/rep106/equilibration/eq1.coor
Info: Exclusions in PARM file will be ignored!
Info: SCNB (VDW SCALING)     2
Info: USING ARITHMETIC MEAN TO COMBINE L-J SIGMA PARAMETERS
Info: SUMMARY OF PARAMETERS:
Info: 71 BONDS
Info: 145 ANGLES
Info: 76 DIHEDRAL
Info: 0 IMPROPER
Info: 0 CROSSTERM
Info: 0 VDW
Info: 190 VDW_PAIRS
Info: 0 NBTHOLE_PAIRS
Info: STRUCTURE SUMMARY:
Info: 49394 ATOMS
Info: 49448 BONDS
Info: 8698 ANGLES
Info: 18780 DIHEDRALS
Info: 0 IMPROPERS
Info: 0 CROSSTERMS
Info: 0 EXCLUSIONS
Info: 2336 CONSTRAINTS
Info: 44667 RIGID BONDS
Info: 103515 DEGREES OF FREEDOM
Info: 17225 HYDROGEN GROUPS
Info: 4 ATOMS IN LARGEST HYDROGEN GROUP
Info: 17225 MIGRATION GROUPS
Info: 4 ATOMS IN LARGEST MIGRATION GROUP
Info: TOTAL MASS = 301478 amu
Info: TOTAL CHARGE = 1.00115e-05 e
Info: MASS DENSITY = 0.935846 g/cm^3
Info: ATOM DENSITY = 0.0923345 atoms/A^3
Info: ADDED 70656 IMPLICIT EXCLUSIONS
Info: NONBONDED TABLE R-SQUARED SPACING: 0.0625
Info: NONBONDED TABLE SIZE: 769 POINTS
Info: REMOVING COM VELOCITY -0.00356962 0.00593745 0.00460053
TCL: Running for 5000 steps
ETITLE: TS BOND ANGLE DIHED IMPRP ELECT VDW BOUNDARY MISC KINETIC TOTAL TEMP POTENTIAL TOTAL3 TEMPAVG PRESSURE GPRESSURE VOLUME PRESSAVG GPRESSAVG
ENERGY: 0 390.3004 1194.7732 2906.5503 0.0000 -212775.5761 29664.4577 0.0000 0.0000 10003.0913 -168616.4031 97.2571 -178619.4944 -168606.8312 97.2571 -2298.2995 -2396.9496 534946.2959 -2298.2995 -2396.9496
ENERGY: 1000 1296.4576 1955.9276 3091.8494 0.0000 -193791.4911 26781.9315 747.2630 0.0000 24108.9983 -135809.0636 234.4047 -159918.0620 -135791.0331 219.0325 -49.3046 -51.3987 521701.4803 -13.5196 -13.7017
ENERGY: 2000 1470.9693 2101.5452 3150.1185 0.0000 -184103.0539 23311.8865 797.2321 0.0000 28048.1308 -125223.1715 272.7037 -153271.3023 -125183.3303 264.7940 -71.5783 -7.0811 516784.9150 -13.5648 -13.1988
ENERGY: 3000 1550.5972 2257.5289 3121.1891 0.0000 -179359.1934 21712.3400 843.4346 0.0000 29777.4561 -120096.6475 289.5174 -149874.1037 -120064.2375 285.2985 -16.8845 -28.9454 511656.3108 -14.5928 -14.1291
ENERGY: 4000 1576.1315 2227.9731 3130.3910 0.0000 -176892.6149 20645.4693 805.6813 0.0000 30318.3428 -118188.6257 294.7763 -148506.9685 -118140.1592 293.3871 -55.9144 -36.1615 507173.6265 -16.8074 -17.4303
ENERGY: 5000 1572.4715 2217.0466 3150.7502 0.0000 -176486.4349 20679.6156 775.8841 0.0000 30411.4417 -117679.2252 295.6815 -148090.6669 -117633.8142 296.1741 -2.9820 9.0145 504126.2938 -5.0562 -4.8577
TCL: Setting parameter constraintScaling to 5.0
TCL: Running for 5000 steps
ETITLE: TS BOND ANGLE DIHED IMPRP ELECT VDW BOUNDARY MISC KINETIC TOTAL TEMP POTENTIAL TOTAL3 TEMPAVG PRESSURE GPRESSURE VOLUME PRESSAVG GPRESSAVG
ENERGY: 5000 1572.4715 2217.0466 3150.7502 0.0000 -176486.4349 20679.6156 387.9421 0.0000 30409.4019 -118069.2071 295.6616 -148478.6089 -118023.1888 295.6616 -25.9341 -14.2649 504126.2938 -25.9341 -14.2649
ENERGY: 6000 1658.1889 2255.4452 3183.1672 0.0000 -176002.5616 20469.3728 672.9603 0.0000 30945.5569 -116817.8704 300.8745 -147763.4273 -116776.0160 299.2016 -35.7243 24.4003 502688.8146 -6.9871 -7.0537
ENERGY: 7000 1571.1619 2314.3129 3181.1399 0.0000 -175444.1764 20183.9116 624.0754 0.0000 30901.5731 -116668.0015 300.4469 -147569.5746 -116629.4719 300.3881 -70.6126 -33.1759 503954.0780 19.9267 19.9293
ENERGY: 8000 1561.8126 2285.4409 3141.0068 0.0000 -175129.7716 19850.5919 632.9242 0.0000 30789.2955 -116868.6997 299.3552 -147657.9952 -116823.3553 300.3111 -95.7958 -36.4955 503227.6546 -6.2532 -5.6040
ENERGY: 9000 1557.8788 2309.2110 3164.2079 0.0000 -175625.1100 20085.3012 651.8312 0.0000 30822.3388 -117034.3412 299.6765 -147856.6800 -116998.9952 298.9222 -92.1928 -35.1647 502590.4152 4.8691 5.1354
ENERGY: 10000 1605.4699 2273.9794 3146.9883 0.0000 -175536.5301 20063.3251 655.7002 0.0000 30646.0263 -117145.0410 297.9623 -147791.0673 -117106.9150 298.6493 52.0172 33.8022 503502.5868 8.6101 8.7780
TCL: Setting parameter constraintScaling to 2.5
TCL: Running for 5000 steps
ETITLE: TS BOND ANGLE DIHED IMPRP ELECT VDW BOUNDARY MISC KINETIC TOTAL TEMP POTENTIAL TOTAL3 TEMPAVG PRESSURE GPRESSURE VOLUME PRESSAVG GPRESSAVG
ENERGY: 10000 1605.4699 2273.9794 3146.9883 0.0000 -175536.5301 20063.3251 327.8501 0.0000 30643.9990 -117474.9184 297.9426 -148118.9174 -117430.0837 297.9426 -66.0445 -80.7886 503502.5868 -66.0445 -80.7886
ENERGY: 11000 1589.8193 2337.5938 3189.3851 0.0000 -175390.3333 20068.3452 522.8054 0.0000 30762.0128 -116920.3716 299.0900 -147682.3844 -116882.1667 299.3751 -54.1437 8.7687 502097.6934 2.3795 2.6130
ENERGY: 12000 1586.2563 2394.9970 3174.1260 0.0000 -175432.3155 20067.4751 500.8982 0.0000 30716.4192 -116992.1437 298.6467 -147708.5629 -116951.6504 300.2275 46.5059 63.9981 501478.4917 5.1353 4.9345
ENERGY: 13000 1608.0209 2318.1510 3182.7967 0.0000 -175915.8478 20355.7788 506.0220 0.0000 30971.9041 -116973.1743 301.1307 -147945.0785 -116933.6360 300.0318 -108.6492 16.5916 500936.9889 -0.6891 -0.6308
ENERGY: 14000 1590.5235 2330.6261 3168.1916 0.0000 -175276.9556 19942.1798 505.6954 0.0000 30869.4843 -116870.2549 300.1349 -147739.7392 -116831.2599 300.2210 -156.8869 -44.6399 501370.5267 -0.8940 -0.8679
ENERGY: 15000 1668.2194 2260.2324 3182.4778 0.0000 -175295.4531 19921.5380 486.2243 0.0000 30855.3875 -116921.3737 299.9978 -147776.7611 -116874.6605 300.4860 -15.5765 47.2883 501243.5968 11.9462 12.3744
TCL: Setting parameter constraintScaling to 1.25
TCL: Running for 5000 steps
ETITLE: TS BOND ANGLE DIHED IMPRP ELECT VDW BOUNDARY MISC KINETIC TOTAL TEMP POTENTIAL TOTAL3 TEMPAVG PRESSURE GPRESSURE VOLUME PRESSAVG GPRESSAVG
ENERGY: 15000 1668.2194 2260.2324 3182.4778 0.0000 -175295.4531 19921.5380 243.1121 0.0000 30853.3425 -117166.5307 299.9779 -148019.8733 -117123.2448 299.9779 -118.7306 -56.1116 501243.5968 -118.7306 -56.1116
ENERGY: 16000 1572.7090 2338.8189 3195.7939 0.0000 -175724.3165 20111.3407 406.0017 0.0000 30832.6156 -117267.0367 299.7764 -148099.6523 -117219.4692 299.2838 -9.9547 -12.1690 500464.4599 5.0630 4.4217
ENERGY: 17000 1643.9662 2407.3368 3193.0753 0.0000 -175606.4204 20298.0097 415.5719 0.0000 30712.3521 -116936.1084 298.6071 -147648.4605 -116889.5080 299.8857 -118.9089 -81.1480 501359.4948 14.1929 14.2094
ENERGY: 18000 1635.3031 2378.7470 3187.7793 0.0000 -175365.3931 20107.2998 394.3828 0.0000 30712.2842 -116949.5969 298.6065 -147661.8811 -116904.7253 299.9703 -49.3638 28.4670 500815.6975 4.0045 4.2192
ENERGY: 19000 1657.9662 2345.4318 3161.7087 0.0000 -175410.3737 19962.3613 411.1824 0.0000 30721.8482 -117149.8751 298.6995 -147871.7233 -117099.6857 300.6318 49.4818 34.7902 500465.5151 14.9754 14.7688
ENERGY: 20000 1687.9003 2337.0777 3167.1276 0.0000 -175417.1504 20030.9658 422.9811 0.0000 30758.3184 -117012.7794 299.0540 -147771.0978 -116967.1443 299.9607 -77.4420 80.7406 500108.2591 7.7549 7.8673
TCL: Setting parameter constraintScaling to 0.625
TCL: Running for 5000 steps
ETITLE: TS BOND ANGLE DIHED IMPRP ELECT VDW BOUNDARY MISC KINETIC TOTAL TEMP POTENTIAL TOTAL3 TEMPAVG PRESSURE GPRESSURE VOLUME PRESSAVG GPRESSAVG
ENERGY: 20000 1687.9003 2337.0777 3167.1276 0.0000 -175417.1504 20030.9658 211.4906 0.0000 30756.2479 -117226.3405 299.0339 -147982.5884 -117183.1363 299.0339 -137.0797 20.6881 500108.2591 -137.0797 20.6881
ENERGY: 21000 1695.4330 2417.2319 3203.1956 0.0000 -175956.2510 20285.3787 324.3751 0.0000 31038.9542 -116991.6826 301.7826 -148030.6368 -116942.2533 300.5130 -0.0496 12.6517 499624.6716 2.3298 2.5813
ENERGY: 22000 1664.4345 2444.9876 3241.0268 0.0000 -175658.1879 20018.1820 320.4078 0.0000 31053.6600 -116915.4891 301.9256 -147969.1491 -116866.8611 300.5936 -81.9742 -37.2730 501183.9643 0.3709 0.6313
ENERGY: 23000 1631.8588 2368.5534 3187.4929 0.0000 -175759.3579 20262.2908 305.3102 0.0000 30569.2941 -117434.5576 297.2162 -148003.8518 -117386.7981 299.6480 10.2574 69.5558 500568.5165 -6.3567 -6.0351
ENERGY: 24000 1610.3661 2384.9541 3191.9696 0.0000 -175426.7703 20015.0178 315.6013 0.0000 30803.8461 -117105.0153 299.4967 -147908.8614 -117051.5484 299.1633 -174.3087 -60.6498 500541.9003 6.4399 6.6917
ENERGY: 25000 1602.6721 2332.4446 3195.2320 0.0000 -175692.8295 20089.0075 321.7455 0.0000 30777.7827 -117373.9451 299.2433 -148151.7278 -117320.6760 299.4347 -62.8862 35.0469 500139.9793 13.8196 13.5453
TCL: Setting parameter constraintScaling to 0.3125
TCL: Running for 5000 steps
ETITLE: TS BOND ANGLE DIHED IMPRP ELECT VDW BOUNDARY MISC KINETIC TOTAL TEMP POTENTIAL TOTAL3 TEMPAVG PRESSURE GPRESSURE VOLUME PRESSAVG GPRESSAVG
ENERGY: 25000 1602.6721 2332.4446 3195.2320 0.0000 -175692.8295 20089.0075 160.8728 0.0000 30775.7327 -117536.8678 299.2234 -148312.6005 -117492.9505 299.2234 -136.4758 -25.7525 500139.9793 -136.4758 -25.7525
ENERGY: 26000 1620.5046 2423.4427 3224.6459 0.0000 -175481.8946 19978.2171 234.2999 0.0000 30912.6373 -117088.1471 300.5544 -148000.7844 -117042.2362 300.2122 -67.3203 37.9448 499329.4144 2.4420 2.9695
ENERGY: 27000 1596.7043 2395.3629 3210.8783 0.0000 -175571.7042 19929.6248 248.6362 0.0000 30829.3815 -117361.1163 299.7450 -148190.4978 -117321.0385 299.8241 57.0325 10.0990 498770.0226 6.4037 6.0206
ENERGY: 28000 1669.8819 2395.9840 3186.6186 0.0000 -175918.4152 19962.8243 253.3124 0.0000 31006.0468 -117443.7471 301.4626 -148449.7940 -117394.4920 299.7861 -78.1894 9.6511 498283.5981 1.6130 2.0357
ENERGY: 29000 1655.7802 2387.9808 3195.8274 0.0000 -175791.1931 20069.3394 272.7790 0.0000 30679.6551 -117529.8312 298.2892 -148209.4863 -117489.5657 299.1678 13.5041 36.9138 497984.6031 3.1030 2.8135
ENERGY: 30000 1589.6172 2404.7517 3175.7408 0.0000 -175891.8442 20045.6886 264.1237 0.0000 30566.4328 -117845.4895 297.1884 -148411.9222 -117807.7582 298.5560 40.2850 -44.6224 498496.8457 5.2731 5.2156
TCL: Setting parameter constraintScaling to 0.15625
TCL: Running for 5000 steps
ETITLE: TS BOND ANGLE DIHED IMPRP ELECT VDW BOUNDARY MISC KINETIC TOTAL TEMP POTENTIAL TOTAL3 TEMPAVG PRESSURE GPRESSURE VOLUME PRESSAVG GPRESSAVG
ENERGY: 30000 1589.6172 2404.7517 3175.7408 0.0000 -175891.8442 20045.6886 132.0618 0.0000 30564.3864 -117979.5977 297.1685 -148543.9841 -117934.7095 297.1685 44.3677 -39.4990 498496.8457 44.3677 -39.4990
ENERGY: 31000 1634.9460 2446.6872 3203.1334 0.0000 -176088.6878 20132.6045 191.7866 0.0000 30831.2891 -117648.2410 299.7635 -148479.5301 -117600.9605 299.1646 9.1208 -12.2423 498814.0646 11.7316 11.8807
ENERGY: 32000 1669.3386 2369.5268 3194.4457 0.0000 -176395.4979 20228.3732 204.2933 0.0000 31041.3508 -117688.1696 301.8059 -148729.5204 -117641.5418 299.9466 -13.1375 -46.3262 498321.6318 4.1393 4.5530
ENERGY: 33000 1618.0716 2435.6073 3232.4645 0.0000 -175865.9066 20033.3805 211.9995 0.0000 30797.5118 -117536.8714 299.4351 -148334.3832 -117491.5624 299.4479 91.5886 21.8724 500336.7878 11.5346 11.8205
ENERGY: 34000 1589.7389 2386.4034 3208.1757 0.0000 -175927.6165 20055.8197 209.3294 0.0000 30920.6779 -117557.4716 300.6326 -148478.1494 -117493.0358 299.8129 23.3904 -8.2714 498676.7561 -4.6437 -4.3495
ENERGY: 35000 1651.5793 2437.8649 3200.4523 0.0000 -176086.5212 20211.5238 199.4407 0.0000 30699.3516 -117686.3086 298.4807 -148385.6602 -117648.1710 299.0713 -101.3596 -37.5776 497391.8134 -8.2555 -8.7471
TCL: Setting parameter constraintScaling to 0.078125
TCL: Running for 5000 steps
ETITLE: TS BOND ANGLE DIHED IMPRP ELECT VDW BOUNDARY MISC KINETIC TOTAL TEMP POTENTIAL TOTAL3 TEMPAVG PRESSURE GPRESSURE VOLUME PRESSAVG GPRESSAVG
ENERGY: 35000 1651.5793 2437.8649 3200.4523 0.0000 -176086.5212 20211.5238 99.7204 0.0000 30697.3167 -117788.0638 298.4609 -148485.3806 -117743.7598 298.4609 -110.8303 -48.7771 497391.8134 -110.8303 -48.7771
ENERGY: 36000 1608.2073 2353.7607 3213.2710 0.0000 -176082.1101 20119.4866 150.8398 0.0000 30560.7384 -118075.8062 297.1330 -148636.5446 -118040.9486 297.0695 42.2786 23.6216 496883.5888 9.6232 9.4302
ENERGY: 37000 1582.4532 2338.1473 3246.5989 0.0000 -176393.6121 20143.5759 158.4105 0.0000 30762.6025 -118161.8239 299.0957 -148924.4264 -118116.8249 298.8451 52.8184 38.5958 496829.2178 -2.7630 -3.5565
ENERGY: 38000 1641.5746 2408.7920 3203.2710 0.0000 -176298.5395 20188.9758 151.4183 0.0000 30648.8499 -118055.6579 297.9897 -148704.5078 -118013.4034 299.4452 69.6360 68.0389 496857.7433 -5.8393 -6.0521
ENERGY: 39000 1613.5472 2378.7412 3251.4314 0.0000 -175699.5251 20020.8332 164.5866 0.0000 30644.9901 -117625.3954 297.9522 -148270.3855 -117582.5826 298.6939 -133.9826 -78.9435 498672.9173 9.9663 10.0195
ENERGY: 40000 1651.3160 2401.4763 3179.9990 0.0000 -175618.6843 19924.6133 159.2604 0.0000 30801.9517 -117500.0676 299.4783 -148302.0193 -117452.5480 299.7002 -108.0169 -37.8829 498471.5370 14.9169 15.3329
TCL: Setting parameter constraintScaling to 0.0390625
TCL: Running for 5000 steps
ETITLE: TS BOND ANGLE DIHED IMPRP ELECT VDW BOUNDARY MISC KINETIC TOTAL TEMP POTENTIAL TOTAL3 TEMPAVG PRESSURE GPRESSURE VOLUME PRESSAVG GPRESSAVG
ENERGY: 40000 1651.3160 2401.4763 3179.9990 0.0000 -175618.6843 19924.6133 79.6302 0.0000 30799.9284 -117581.7211 299.4586 -148381.6495 -117541.9211 299.4586 -101.9247 -37.4518 498471.5370 -101.9247 -37.4518
ENERGY: 41000 1625.1729 2430.7620 3193.3371 0.0000 -176102.9685 20124.5106 104.9922 0.0000 30872.8819 -117751.3118 300.1679 -148624.1937 -117710.3460 299.0157 98.1283 67.2993 496764.6750 5.8047 6.1114
ENERGY: 42000 1668.0070 2442.9072 3222.3546 0.0000 -176364.7307 20043.9762 112.1683 0.0000 30933.8808 -117941.4367 300.7610 -148875.3174 -117902.3986 299.2678 -101.2148 -8.1500 496470.3895 1.3293 1.0265
ENERGY: 43000 1592.6980 2431.8806 3160.3863 0.0000 -176335.0794 20155.3016 125.3560 0.0000 30638.3070 -118231.1499 297.8872 -148869.4569 -118178.2307 297.6010 32.7870 0.6317 497049.4516 3.0820 2.7760
ENERGY: 44000 1604.5660 2386.5840 3202.1301 0.0000 -175951.7085 20081.1373 125.6742 0.0000 30714.8914 -117836.7256 298.6318 -148551.6170 -117784.0354 299.1945 7.9872 40.1535 497088.6010 -2.3171 -1.7304
ENERGY: 45000 1634.7234 2420.0553 3221.4456 0.0000 -175952.1709 19986.0596 124.3183 0.0000 30984.1549 -117581.4139 301.2498 -148565.5688 -117535.4815 300.4612 -85.0548 10.9451 497791.4712 7.0471 7.3984
TCL: Setting parameter constraintScaling to 0.01953125
TCL: Running for 5000 steps
ETITLE: TS BOND ANGLE DIHED IMPRP ELECT VDW BOUNDARY MISC KINETIC TOTAL TEMP POTENTIAL TOTAL3 TEMPAVG PRESSURE GPRESSURE VOLUME PRESSAVG GPRESSAVG
ENERGY: 45000 1634.7234 2420.0553 3221.4456 0.0000 -175952.1709 19986.0596 62.1591 0.0000 30982.0930 -117645.6349 301.2297 -148627.7279 -117606.5459 301.2297 -99.1571 -0.8537 497791.4712 -99.1571 -0.8537
ENERGY: 46000 1637.1114 2384.1535 3213.1531 0.0000 -175567.4950 19773.9087 77.4528 0.0000 30769.5865 -117712.1291 299.1636 -148481.7156 -117673.3530 300.6974 -120.2297 -88.6282 495765.8913 -8.4215 -8.4397
ENERGY: 47000 1622.9557 2413.8286 3218.5195 0.0000 -175635.7068 20048.2314 80.3433 0.0000 30808.4209 -117443.4074 299.5412 -148251.8283 -117398.5823 299.4276 -5.5041 20.6704 496337.6759 3.3160 3.3537
ENERGY: 48000 1635.7756 2423.1354 3233.3455 0.0000 -175511.4737 19990.9257 82.2761 0.0000 30710.5943 -117435.4210 298.5900 -148146.0154 -117399.9094 300.3801 -63.0370 14.8314 496936.1422 12.8345 12.5041
ENERGY: 49000 1594.5033 2396.5934 3225.7873 0.0000 -175937.8525 20159.9579 95.0277 0.0000 30881.1664 -117584.8165 300.2485 -148465.9829 -117545.1917 300.8156 -21.0708 13.5056 497086.7675 -4.9926 -4.5624
ENERGY: 50000 1592.1140 2365.3341 3192.9915 0.0000 -175924.2565 20046.9522 93.1878 0.0000 30802.6845 -117830.9923 299.4854 -148633.6768 -117781.3188 299.3248 -105.8738 11.0459 498077.1438 15.4860 15.0216
TCL: Setting parameter constraintScaling to 0
TCL: Running for 5000 steps
ETITLE: TS BOND ANGLE DIHED IMPRP ELECT VDW BOUNDARY MISC KINETIC TOTAL TEMP POTENTIAL TOTAL3 TEMPAVG PRESSURE GPRESSURE VOLUME PRESSAVG GPRESSAVG
ENERGY: 50000 1592.1140 2365.3341 3192.9915 0.0000 -175924.2566 20046.9522 0.0000 0.0000 30800.6347 -117926.2300 299.4655 -148726.8647 -117879.9454 299.4655 -116.2125 -5.9964 498077.1438 -116.2125 -5.9964
ENERGY: 51000 1659.6050 2369.2085 3219.1883 0.0000 -175929.9777 19917.8446 0.0000 0.0000 30790.8133 -117973.3180 299.3700 -148764.1313 -117935.3272 298.6950 -18.3405 -30.0237 495172.1227 -14.8725 -14.8742
ENERGY: 52000 1680.8441 2407.3466 3230.5826 0.0000 -175981.0294 19995.1836 0.0000 0.0000 30633.0444 -118034.0280 297.8360 -148667.0724 -117991.8946 299.4648 -19.3561 -30.1743 495473.7401 3.2403 3.4571
ENERGY: 53000 1664.8290 2456.7053 3221.4993 0.0000 -175899.0579 20112.5323 0.0000 0.0000 30911.0017 -117532.4903 300.5385 -148443.4920 -117487.0312 299.7903 -71.8302 -28.0544 497661.4712 20.1991 20.6654
ENERGY: 54000 1624.0227 2404.9495 3242.4294 0.0000 -175880.2361 20060.0480 0.0000 0.0000 30635.2251 -117913.5613 297.8572 -148548.7864 -117876.4761 299.5507 24.8670 53.3542 496981.9533 -4.0656 -4.4161
ENERGY: 55000 1653.8129 2404.5924 3237.4294 0.0000 -175679.0232 19918.6774 0.0000 0.0000 30625.2372 -117839.2739 297.7601 -148464.5110 -117802.1643 299.9556 -119.1388 -97.2380 495787.3793 4.7816 4.4069
