Info: SIMULATION PARAMETERS:
Info: TIMESTEP               1
Info: NUMBER OF STEPS        0
Info: STEPS PER CYCLE        10
Info: PERIODIC CELL BASIS 1  72.449 0 0
Info: PERIODIC CELL BASIS 2  0 93.247 0
Info: PERIODIC CELL BASIS 3  0 0 79.185
Info: PERIODIC CELL CENTER   -0.248 -0.156 -0.047
Info: WRAPPING WATERS AROUND PERIODIC BOUNDARIES ON OUTPUT.
Info: WRAPPING ALL CLUSTERS AROUND PERIODIC BOUNDARIES ON OUTPUT.
Info: FIRST LDB TIMESTEP     50
Info: LAST LDB TIMESTEP     -1
Info: HOM BACKGROUND SCALING 1
Info: PME BACKGROUND SCALING 1
Info: MIN ATOMS PER PATCH    40
Info: VELOCITY FILE          ../replicas/rep17/equilibration/eq1.vel
Info: CENTER OF MASS MOVING INITIALLY? NO
Info: DIELECTRIC             1
Info: EXCLUDE                SCALED ONE-FOUR
Info: 1-4 ELECTROSTATICS SCALED BY 0.833333
Info: MODIFIED 1-4 VDW PARAMETERS WILL BE USED
Info: DCD FILENAME           ../replicas/rep17/equilibration/eq2.dcd
Info: DCD FREQUENCY          5000
Info: DCD FIRST STEP         5000
Info: DCD FILE WILL CONTAIN UNIT CELL DATA
Info: XST FILENAME           ../replicas/rep17/equilibration/eq2.xst
Info: XST FREQUENCY          5000
Info: NO VELOCITY DCD OUTPUT
Info: NO FORCE DCD OUTPUT
Info: OUTPUT FILENAME        ../replicas/rep17/equilibration/eq2
Info: RESTART FILENAME       ../replicas/rep17/equilibration/eq2.restart
Info: RESTART FREQUENCY      5000
Info: BINARY RESTART FILES WILL BE USED
Info: SWITCHING ACTIVE
Info: SWITCHING ON           10
Info: SWITCHING OFF          12
Info: PAIRLIST DISTANCE      13.5
Info: PAIRLIST SHRINK RATE   0.01
Info: PAIRLIST GROW RATE     0.01
Info: PAIRLIST TRIGGER       0.3
Info: PAIRLISTS PER CYCLE    2
Info: PAIRLISTS ENABLED
Info: MARGIN                 0.48
Info: HYDROGEN GROUP CUTOFF  2.5
Info: PATCH DIMENSION        16.48
Info: ENERGY OUTPUT STEPS    500
Info: CROSSTERM ENERGY INCLUDED IN DIHEDRAL
Info: TIMING OUTPUT STEPS    5000
Info: PRESSURE OUTPUT STEPS  500
Info: HARMONIC CONSTRAINTS ACTIVE
Info: HARMONIC CONS EXP      2
Info: HARMONIC CONS SCALING  10
Info: LANGEVIN DYNAMICS ACTIVE
Info: LANGEVIN TEMPERATURE   300
Info: LANGEVIN USING BBK INTEGRATOR
Info: LANGEVIN DAMPING COEFFICIENT IS 5 INVERSE PS
Info: LANGEVIN DYNAMICS NOT APPLIED TO HYDROGENS
Info: BERENDSEN PRESSURE COUPLING ACTIVE
Info:     TARGET PRESSURE IS 1 BAR
Info:     COMPRESSIBILITY ESTIMATE IS 4.57e-05 BAR^(-1)
Info:     RELAXATION TIME IS 100 FS
Info:     APPLIED EVERY 2 STEPS
Info:     PRESSURE CONTROL IS GROUP-BASED
Info:       CELL FLUCTUATION IS ISOTROPIC
Info: PARTICLE MESH EWALD (PME) ACTIVE
Info: PME TOLERANCE               1e-06
Info: PME EWALD COEFFICIENT       0.257952
Info: PME INTERPOLATION ORDER     4
Info: PME GRID DIMENSIONS         80 96 80
Info: PME MAXIMUM GRID SPACING    1
Info: FULL ELECTROSTATIC EVALUATION FREQUENCY      2
Info: USING VERLET I (r-RESPA) MTS SCHEME.
Info: C1 SPLITTING OF LONG RANGE ELECTROSTATICS
Info: PLACING ATOMS IN PATCHES BY HYDROGEN GROUPS
Info: RIGID BONDS TO HYDROGEN : WATER
Info:         ERROR TOLERANCE : 1e-05
Info:          MAX ITERATIONS : 100
Info: RIGID WATER USING SETTLE ALGORITHM
Info: RANDOM NUMBER SEED     1503707705
Info: USE HYDROGEN BONDS?    NO
Info: Using AMBER format force field!
Info: AMBER PARM FILE        ../build/complex.top
Info: COORDINATE PDB         ../replicas/rep17/equilibration/eq1.coor
Info: Exclusions in PARM file will be ignored!
Info: SCNB (VDW SCALING)     2
Info: USING ARITHMETIC MEAN TO COMBINE L-J SIGMA PARAMETERS
Info: SUMMARY OF PARAMETERS:
Info: 71 BONDS
Info: 145 ANGLES
Info:   145 HARMONIC
Info:   0 COSINE-BASED
Info: 76 DIHEDRAL
Info: 0 IMPROPER
Info: 0 CROSSTERM
Info: 0 VDW
Info: 190 VDW_PAIRS
Info: 0 NBTHOLE_PAIRS
Info: STRUCTURE SUMMARY:
Info: 49394 ATOMS
Info: 49448 BONDS
Info: 8698 ANGLES
Info: 18780 DIHEDRALS
Info: 0 IMPROPERS
Info: 0 CROSSTERMS
Info: 0 EXCLUSIONS
Info: 2336 CONSTRAINTS
Info: 44667 RIGID BONDS
Info: 103515 DEGREES OF FREEDOM
Info: 17225 HYDROGEN GROUPS
Info: 4 ATOMS IN LARGEST HYDROGEN GROUP
Info: 17225 MIGRATION GROUPS
Info: 4 ATOMS IN LARGEST MIGRATION GROUP
Info: TOTAL MASS = 301478 amu
Info: TOTAL CHARGE = 1.00115e-05 e
Info: MASS DENSITY = 0.935846 g/cm^3
Info: ATOM DENSITY = 0.0923345 atoms/A^3
Info: ADDED 70656 IMPLICIT EXCLUSIONS
Info: NONBONDED TABLE R-SQUARED SPACING: 0.0625
Info: NONBONDED TABLE SIZE: 769 POINTS
Info: REMOVING COM VELOCITY -0.00882417 -0.0128013 0.0137209
TCL: Running for 5000 steps
ETITLE: TS BOND ANGLE DIHED IMPRP ELECT VDW BOUNDARY MISC KINETIC TOTAL TEMP POTENTIAL TOTAL3 TEMPAVG PRESSURE GPRESSURE VOLUME PRESSAVG GPRESSAVG
ENERGY: 0 383.1730 1215.0651 2908.2488 0.0000 -212430.7483 29351.7084 0.0000 0.0000 10054.4352 -168518.1178 97.7563 -178572.5530 -168508.4423 97.7563 -2448.4193 -2552.2963 534946.2959 -2448.4193 -2552.2963
ENERGY: 1000 1214.3575 2029.1864 3128.8364 0.0000 -193306.5864 26286.6072 770.4538 0.0000 24096.5707 -135780.5744 234.2838 -159877.1451 -135759.6811 218.5267 6.7830 16.8657 523066.7761 -8.1032 -8.5308
ENERGY: 2000 1441.2606 2117.8624 3125.4632 0.0000 -184006.0284 23330.4186 819.0207 0.0000 27944.1702 -125227.8327 271.6929 -153172.0029 -125181.0224 265.7397 -116.1893 -29.2138 515842.4861 -21.1775 -21.0306
ENERGY: 3000 1508.8021 2271.9060 3151.9821 0.0000 -179038.9205 21608.6848 805.9032 0.0000 29753.8936 -119937.7488 289.2883 -149691.6424 -119897.4137 285.3344 -79.3843 33.6261 511143.4178 -20.8049 -20.9479
ENERGY: 4000 1610.9375 2325.2458 3106.1219 0.0000 -176230.7639 20447.2587 785.7423 0.0000 30362.3883 -117593.0694 295.2045 -147955.4577 -117541.3452 294.7181 22.7282 -1.0768 506898.9983 -23.9614 -24.3273
ENERGY: 5000 1559.8007 2238.9395 3114.6416 0.0000 -175621.0397 20655.3156 838.5585 0.0000 30700.5738 -116513.2099 298.4926 -147213.7838 -116474.3342 298.6007 -7.8323 16.6987 507989.8321 10.3844 10.6900
TCL: Setting parameter constraintScaling to 5.0
TCL: Running for 5000 steps
ETITLE: TS BOND ANGLE DIHED IMPRP ELECT VDW BOUNDARY MISC KINETIC TOTAL TEMP POTENTIAL TOTAL3 TEMPAVG PRESSURE GPRESSURE VOLUME PRESSAVG GPRESSAVG
ENERGY: 5000 1559.8007 2238.9395 3114.6416 0.0000 -175621.0397 20655.3156 419.2792 0.0000 30698.5336 -116934.5295 298.4728 -147633.0630 -116889.5355 298.4728 4.9232 32.0469 507989.8321 4.9232 32.0469
ENERGY: 6000 1582.1131 2251.0591 3148.3786 0.0000 -175422.5032 20253.0266 652.5710 0.0000 30849.5459 -116685.8090 299.9410 -147535.3548 -116632.6662 300.0791 -114.5083 9.2586 505667.1461 -11.9470 -11.5833
ENERGY: 7000 1563.3033 2333.2692 3167.0350 0.0000 -175165.2815 19979.1799 645.2573 0.0000 30633.0064 -116844.2304 297.8357 -147477.2369 -116804.6691 299.1399 7.6389 -7.9758 503475.4670 -5.3060 -5.6051
ENERGY: 8000 1593.5645 2336.2911 3151.7062 0.0000 -175500.1160 20151.7251 652.5281 0.0000 30937.7085 -116676.5925 300.7982 -147614.3010 -116624.6632 299.7102 -107.6004 -20.9046 503796.1514 2.2032 2.3452
ENERGY: 9000 1624.9194 2327.6562 3147.1955 0.0000 -175350.7279 20046.5694 610.3709 0.0000 30903.3740 -116690.6424 300.4644 -147594.0164 -116639.2266 299.9501 24.1626 -1.8476 502838.1627 -7.3128 -7.2356
ENERGY: 10000 1619.2534 2287.1333 3163.1681 0.0000 -175746.1436 20184.5001 667.5546 0.0000 30832.5957 -116991.9384 299.7762 -147824.5341 -116951.0688 299.4559 -20.3846 -28.7553 501415.5828 -8.8467 -8.6278
TCL: Setting parameter constraintScaling to 2.5
TCL: Running for 5000 steps
ETITLE: TS BOND ANGLE DIHED IMPRP ELECT VDW BOUNDARY MISC KINETIC TOTAL TEMP POTENTIAL TOTAL3 TEMPAVG PRESSURE GPRESSURE VOLUME PRESSAVG GPRESSAVG
ENERGY: 10000 1619.2534 2287.1333 3163.1681 0.0000 -175746.1436 20184.5001 333.7773 0.0000 30830.5632 -117327.7482 299.7565 -148158.3114 -117285.6519 299.7565 -60.7096 -67.1079 501415.5828 -60.7096 -67.1079
ENERGY: 11000 1610.8244 2356.9708 3183.9893 0.0000 -175582.6932 20015.8654 539.1343 0.0000 30905.9212 -116969.9877 300.4891 -147875.9089 -116906.0360 300.0840 -5.8995 -24.9978 501039.3925 -6.5411 -6.7813
ENERGY: 12000 1612.1469 2386.7394 3204.8753 0.0000 -175446.8771 20162.7189 525.9563 0.0000 30708.2462 -116846.1941 298.5672 -147554.4403 -116801.7372 299.6223 -5.3429 41.5465 500039.7324 4.7556 5.2712
ENERGY: 13000 1583.8439 2331.2544 3160.5818 0.0000 -175549.1809 20102.2113 500.3794 0.0000 31024.1762 -116846.7340 301.6389 -147870.9101 -116793.5532 299.5521 -109.1341 -72.1218 501238.6677 1.1550 1.2466
ENERGY: 14000 1606.4932 2361.0656 3167.7450 0.0000 -175286.1333 20161.9376 508.6866 0.0000 30741.9980 -116738.2072 298.8954 -147480.2052 -116698.8605 301.0343 -48.1882 -5.0607 500801.3528 -2.6186 -2.3897
ENERGY: 15000 1598.7014 2294.4667 3148.0974 0.0000 -175716.8852 20107.0906 517.1860 0.0000 30565.9672 -117485.3759 297.1839 -148051.3431 -117443.2119 299.4208 -50.9692 0.5289 498927.6944 -9.3325 -9.1505
TCL: Setting parameter constraintScaling to 1.25
TCL: Running for 5000 steps
ETITLE: TS BOND ANGLE DIHED IMPRP ELECT VDW BOUNDARY MISC KINETIC TOTAL TEMP POTENTIAL TOTAL3 TEMPAVG PRESSURE GPRESSURE VOLUME PRESSAVG GPRESSAVG
ENERGY: 15000 1598.7014 2294.4667 3148.0974 0.0000 -175716.8852 20107.0906 258.5930 0.0000 30563.9271 -117746.0090 297.1640 -148309.9361 -117699.7398 297.1640 -30.2776 20.7513 498927.6944 -30.2776 20.7513
ENERGY: 16000 1627.1802 2352.8476 3177.1091 0.0000 -175704.3518 20024.8098 393.1582 0.0000 30975.3109 -117153.9361 301.1638 -148129.2469 -117101.6879 299.0216 2.6625 -15.0384 498790.7832 -3.6314 -4.0154
ENERGY: 17000 1621.5931 2357.8099 3194.9050 0.0000 -175320.8991 19819.6296 437.5441 0.0000 30775.2316 -117114.1858 299.2185 -147889.4174 -117059.9366 299.4199 36.6957 60.7649 499340.8732 2.9514 2.8293
ENERGY: 18000 1606.1660 2415.3498 3174.6131 0.0000 -175647.4047 20203.7336 406.0024 0.0000 30884.4782 -116957.0616 300.2807 -147841.5398 -116920.7502 300.5825 -108.2651 -3.4590 498983.9212 -4.0371 -4.1964
ENERGY: 19000 1602.1939 2370.3949 3184.6023 0.0000 -175660.0401 19971.1217 419.3571 0.0000 30853.3037 -117259.0665 299.9776 -148112.3702 -117223.0657 300.3739 -73.1025 11.5895 499719.0397 8.4826 8.7408
ENERGY: 20000 1663.0081 2397.8968 3173.7860 0.0000 -175640.8911 20069.3959 415.3345 0.0000 30610.3470 -117311.1229 297.6154 -147921.4700 -117261.1503 299.0677 -228.0936 -117.3699 499318.3094 1.8229 1.6507
TCL: Setting parameter constraintScaling to 0.625
TCL: Running for 5000 steps
ETITLE: TS BOND ANGLE DIHED IMPRP ELECT VDW BOUNDARY MISC KINETIC TOTAL TEMP POTENTIAL TOTAL3 TEMPAVG PRESSURE GPRESSURE VOLUME PRESSAVG GPRESSAVG
ENERGY: 20000 1663.0081 2397.8968 3173.7860 0.0000 -175640.8911 20069.3959 207.6672 0.0000 30608.2971 -117520.8401 297.5954 -148129.1372 -117479.4557 297.5954 -243.8344 -128.4881 499318.3094 -243.8344 -128.4881
ENERGY: 21000 1665.7576 2365.8775 3217.9404 0.0000 -175815.7645 20239.9535 321.4327 0.0000 30765.1322 -117239.6705 299.1203 -148004.8028 -117181.9530 299.6124 -54.0300 -58.9748 498856.0646 -3.9483 -3.5119
ENERGY: 22000 1651.9046 2383.4199 3201.9858 0.0000 -175492.9548 19949.4741 324.2098 0.0000 30749.6479 -117232.3127 298.9697 -147981.9607 -117191.6428 299.6620 -100.9434 -17.1737 498670.3862 13.0795 13.7336
ENERGY: 23000 1670.7822 2369.6920 3199.0667 0.0000 -175350.4108 19818.5623 340.9030 0.0000 30878.5056 -117072.8990 300.2226 -147951.4046 -117025.9429 299.6583 -35.1051 -33.4367 497721.2727 3.1043 3.3667
ENERGY: 24000 1638.4143 2437.3584 3187.5539 0.0000 -175130.3045 19813.3171 318.9334 0.0000 30803.2876 -116931.4398 299.4913 -147734.7274 -116886.6715 300.2415 -51.9386 34.9383 499031.6508 8.5006 8.3626
ENERGY: 25000 1573.4444 2377.9739 3174.8726 0.0000 -175632.0547 19974.4090 321.9004 0.0000 30735.6700 -117473.7844 298.8338 -148209.4544 -117420.8853 300.3338 -42.1821 -19.1905 499261.6786 -1.4484 -1.6227
TCL: Setting parameter constraintScaling to 0.3125
TCL: Running for 5000 steps
ETITLE: TS BOND ANGLE DIHED IMPRP ELECT VDW BOUNDARY MISC KINETIC TOTAL TEMP POTENTIAL TOTAL3 TEMPAVG PRESSURE GPRESSURE VOLUME PRESSAVG GPRESSAVG
ENERGY: 25000 1573.4444 2377.9739 3174.8726 0.0000 -175632.0547 19974.4090 160.9502 0.0000 30733.6076 -117636.7970 298.8138 -148370.4046 -117593.1871 298.8138 -73.2379 -49.9532 499261.6786 -73.2379 -49.9532
ENERGY: 26000 1591.9469 2368.9706 3205.8994 0.0000 -175751.0722 20091.0675 243.6115 0.0000 30904.3428 -117345.2335 300.4738 -148249.5763 -117307.4091 300.0003 -46.0130 2.1575 498886.7172 6.0879 5.6599
ENERGY: 27000 1677.3086 2336.7445 3219.6599 0.0000 -175763.5459 19990.5999 257.9590 0.0000 30779.4099 -117501.8640 299.2591 -148281.2739 -117454.4923 299.3457 -63.8060 36.3480 498021.0999 5.2920 5.6164
ENERGY: 28000 1657.2404 2392.6328 3231.0218 0.0000 -175514.3958 20026.3972 245.1774 0.0000 30845.2429 -117116.6832 299.8992 -147961.9261 -117068.7936 300.4868 -47.2697 31.1904 497093.9876 2.3945 2.5725
ENERGY: 29000 1624.3020 2448.2504 3192.3155 0.0000 -175907.2250 20005.5932 259.4958 0.0000 30787.2589 -117590.0091 299.3354 -148377.2681 -117542.7792 299.6373 -18.8736 -9.7929 497773.7861 -3.2894 -3.0836
ENERGY: 30000 1676.2581 2412.3619 3203.3034 0.0000 -175721.0412 20196.0832 243.0307 0.0000 30788.7484 -117201.2554 299.3499 -147990.0038 -117145.9581 300.7241 -25.6798 24.5080 498379.2332 5.0654 5.1108
TCL: Setting parameter constraintScaling to 0.15625
TCL: Running for 5000 steps
ETITLE: TS BOND ANGLE DIHED IMPRP ELECT VDW BOUNDARY MISC KINETIC TOTAL TEMP POTENTIAL TOTAL3 TEMPAVG PRESSURE GPRESSURE VOLUME PRESSAVG GPRESSAVG
ENERGY: 30000 1676.2581 2412.3619 3203.3034 0.0000 -175721.0412 20196.0832 121.5154 0.0000 30786.7285 -117324.7906 299.3303 -148111.5191 -117279.2953 299.3303 -29.9678 25.6935 498379.2332 -29.9678 25.6935
ENERGY: 31000 1622.3287 2435.4396 3225.6070 0.0000 -175557.3322 19989.4543 173.7478 0.0000 30889.3770 -117221.3779 300.3283 -148110.7549 -117175.7470 301.1247 5.3228 -56.0685 496644.0771 -16.9603 -16.8871
ENERGY: 32000 1712.7901 2406.4862 3216.6407 0.0000 -175995.0457 20224.9658 196.2729 0.0000 30578.6933 -117659.1967 297.3076 -148237.8900 -117608.8460 299.9118 12.6156 31.7491 497424.2595 -10.3683 -9.7147
ENERGY: 33000 1705.8972 2434.5832 3202.4064 0.0000 -175767.3472 19987.8335 205.1209 0.0000 30830.4563 -117401.0498 299.7554 -148231.5060 -117348.7041 299.7195 -180.1628 -58.7026 497866.1959 -0.3585 0.1015
ENERGY: 34000 1636.6965 2382.5059 3203.2977 0.0000 -175892.0410 20207.3285 199.1582 0.0000 30654.9329 -117608.1213 298.0489 -148263.0542 -117560.0964 300.3268 30.7801 120.8223 497967.2891 -0.6919 -0.1542
ENERGY: 35000 1662.7520 2433.3482 3169.5656 0.0000 -175844.0228 20074.8239 202.8390 0.0000 30943.3652 -117357.3289 300.8532 -148300.6942 -117314.1847 300.1483 -121.4925 -102.4689 498631.2916 1.8866 1.8766
TCL: Setting parameter constraintScaling to 0.078125
TCL: Running for 5000 steps
ETITLE: TS BOND ANGLE DIHED IMPRP ELECT VDW BOUNDARY MISC KINETIC TOTAL TEMP POTENTIAL TOTAL3 TEMPAVG PRESSURE GPRESSURE VOLUME PRESSAVG GPRESSAVG
ENERGY: 35000 1662.7520 2433.3482 3169.5656 0.0000 -175844.0228 20074.8239 101.4195 0.0000 30941.3346 -117460.7790 300.8335 -148402.1137 -117419.1570 300.8335 -161.1654 -143.4712 498631.2916 -161.1654 -143.4712
ENERGY: 36000 1661.8750 2363.0850 3209.2546 0.0000 -176103.9070 20097.6253 152.4517 0.0000 30971.6431 -117647.9723 301.1281 -148619.6154 -117602.7838 299.5030 -136.0213 -82.8871 496979.9515 -12.5338 -11.8623
ENERGY: 37000 1587.8047 2389.4939 3240.0569 0.0000 -176062.5146 20102.6133 158.8158 0.0000 30683.2989 -117900.4311 298.3247 -148583.7300 -117859.1290 299.1652 2.7352 -2.3299 496939.5787 -5.9295 -6.1710
ENERGY: 38000 1671.1082 2447.2034 3203.1302 0.0000 -176284.0851 20394.7410 150.0067 0.0000 30653.1345 -117764.7611 298.0314 -148417.8956 -117717.3083 299.5672 128.7273 131.3377 496938.2821 -2.4518 -2.7339
ENERGY: 39000 1691.0648 2432.8546 3214.4207 0.0000 -175765.4387 20121.0839 152.4097 0.0000 30775.5276 -117378.0773 299.2214 -148153.6049 -117323.9011 300.2760 -19.5713 19.5572 497720.1571 -3.1234 -2.8671
ENERGY: 40000 1629.8884 2421.5103 3207.3425 0.0000 -175386.6564 19853.3588 166.3117 0.0000 30823.9042 -117284.3405 299.6917 -148108.2447 -117239.1848 300.4043 -95.2552 26.5876 497946.6803 -5.7107 -5.6058
TCL: Setting parameter constraintScaling to 0.0390625
TCL: Running for 5000 steps
ETITLE: TS BOND ANGLE DIHED IMPRP ELECT VDW BOUNDARY MISC KINETIC TOTAL TEMP POTENTIAL TOTAL3 TEMPAVG PRESSURE GPRESSURE VOLUME PRESSAVG GPRESSAVG
ENERGY: 40000 1629.8884 2421.5103 3207.3425 0.0000 -175386.6564 19853.3588 83.1559 0.0000 30821.8619 -117369.5386 299.6719 -148191.4006 -117325.9160 299.6719 -133.3504 -11.7515 497946.6803 -133.3504 -11.7515
ENERGY: 41000 1559.9810 2390.9579 3246.0648 0.0000 -175873.7793 19972.7897 108.2056 0.0000 30851.5049 -117744.2755 299.9601 -148595.7803 -117690.1339 299.9301 11.5035 19.3201 496110.5796 -15.9407 -15.3160
ENERGY: 42000 1600.9767 2336.3284 3245.6639 0.0000 -175566.4864 19924.1096 101.2899 0.0000 30794.0226 -117564.0953 299.4012 -148358.1179 -117521.2712 298.6041 -60.5872 17.7775 497531.7045 7.4119 7.1637
ENERGY: 43000 1589.9491 2382.7667 3236.6448 0.0000 -175832.9542 20030.9510 112.0886 0.0000 30895.2936 -117585.2605 300.3858 -148480.5540 -117536.6418 299.3190 -140.6138 -101.0897 497606.0259 11.3533 11.9461
ENERGY: 44000 1630.6945 2446.4343 3232.1565 0.0000 -175764.0277 19952.6229 127.1898 0.0000 30965.3382 -117409.5916 301.0668 -148374.9298 -117362.4999 300.2680 -68.9851 -33.6379 497386.0139 6.8343 6.9666
ENERGY: 45000 1609.6358 2438.7392 3203.5709 0.0000 -175878.7274 20076.7040 131.5299 0.0000 30612.3130 -117806.2346 297.6345 -148418.5476 -117753.7921 300.1068 65.5143 109.0629 497234.5074 -5.3877 -5.8609
TCL: Setting parameter constraintScaling to 0.01953125
TCL: Running for 5000 steps
ETITLE: TS BOND ANGLE DIHED IMPRP ELECT VDW BOUNDARY MISC KINETIC TOTAL TEMP POTENTIAL TOTAL3 TEMPAVG PRESSURE GPRESSURE VOLUME PRESSAVG GPRESSAVG
ENERGY: 45000 1609.6358 2438.7392 3203.5709 0.0000 -175878.7274 20076.7040 65.7649 0.0000 30610.2679 -117874.0446 297.6146 -148484.3126 -117827.7874 297.6146 50.2161 92.0950 497234.5074 50.2161 92.0950
ENERGY: 46000 1641.7579 2406.7290 3203.1408 0.0000 -175755.0247 20020.5398 78.4751 0.0000 30736.8985 -117667.4836 298.8458 -148404.3821 -117621.8081 299.8481 82.7423 94.9087 496295.8008 -12.2982 -12.3032
ENERGY: 47000 1530.2411 2414.3080 3209.7895 0.0000 -175970.2870 20149.9735 83.4085 0.0000 30721.2353 -117861.3311 298.6935 -148582.5664 -117820.0155 298.8726 22.2929 8.5873 496665.9520 1.2207 1.7130
ENERGY: 48000 1635.2997 2426.2778 3172.4678 0.0000 -175726.8892 19906.3641 79.1421 0.0000 30818.2442 -117689.0935 299.6367 -148507.3378 -117638.2955 299.9311 8.4871 31.4798 496209.4956 -10.8522 -10.5428
ENERGY: 49000 1620.3626 2435.2360 3220.3430 0.0000 -175975.8819 20054.8964 92.9497 0.0000 30710.9340 -117841.1603 298.5933 -148552.0942 -117796.8394 299.6123 1.3709 112.0049 495736.7818 6.7427 6.7463
ENERGY: 50000 1627.8653 2429.3500 3220.5158 0.0000 -175681.7541 19825.4873 93.4861 0.0000 30681.7908 -117803.2589 298.3100 -148485.0497 -117767.7873 298.8812 30.6099 41.3798 496098.1819 7.2451 7.4959
TCL: Setting parameter constraintScaling to 0
TCL: Running for 5000 steps
ETITLE: TS BOND ANGLE DIHED IMPRP ELECT VDW BOUNDARY MISC KINETIC TOTAL TEMP POTENTIAL TOTAL3 TEMPAVG PRESSURE GPRESSURE VOLUME PRESSAVG GPRESSAVG
ENERGY: 50000 1627.8653 2429.3500 3220.5158 0.0000 -175681.7541 19825.4873 0.0000 0.0000 30679.7456 -117898.7902 298.2901 -148578.5358 -117856.9710 298.2901 21.7226 26.7332 496098.1819 21.7226 26.7332
ENERGY: 51000 1659.9218 2377.7089 3177.3263 0.0000 -176015.0550 19882.2866 0.0000 0.0000 30832.3726 -118085.4388 299.7741 -148917.8114 -118043.1442 299.2038 -23.7614 -85.6341 496279.1029 2.4093 1.9617
ENERGY: 52000 1621.4376 2423.9705 3205.2752 0.0000 -176371.0883 20017.5740 0.0000 0.0000 30879.0564 -118223.7745 300.2279 -149102.8310 -118179.4991 297.5715 -215.3310 -46.7743 494548.4391 -1.4377 -1.6336
ENERGY: 53000 1546.1825 2436.2884 3231.1780 0.0000 -176457.3007 20193.8780 0.0000 0.0000 30689.5026 -118360.2711 298.3850 -149049.7737 -118327.1032 299.0114 -34.1217 14.5273 495261.7179 -9.4528 -8.9648
ENERGY: 54000 1609.0135 2415.4896 3179.3275 0.0000 -175797.8504 19966.0920 0.0000 0.0000 30592.3561 -118035.5716 297.4404 -148627.9277 -117989.2242 298.8591 -71.8102 -58.9014 495612.3084 -7.1468 -6.5403
ENERGY: 55000 1620.7019 2513.7109 3184.4747 0.0000 -176352.8519 20221.7160 0.0000 0.0000 30943.0090 -117869.2394 300.8497 -148812.2484 -117810.7646 299.2339 -59.1323 -22.0275 496382.8021 8.0380 7.7830
