Info: SIMULATION PARAMETERS:
Info: TIMESTEP               2
Info: NUMBER OF STEPS        0
Info: STEPS PER CYCLE        10
Info: PERIODIC CELL BASIS 1  72.449 0 0
Info: PERIODIC CELL BASIS 2  0 93.247 0
Info: PERIODIC CELL BASIS 3  0 0 79.185
Info: PERIODIC CELL CENTER   -0.248 -0.156 -0.047
Info: WRAPPING WATERS AROUND PERIODIC BOUNDARIES ON OUTPUT.
Info: WRAPPING ALL CLUSTERS AROUND PERIODIC BOUNDARIES ON OUTPUT.
Info: FIRST LDB TIMESTEP     50
Info: LAST LDB TIMESTEP     -1
Info: HOM BACKGROUND SCALING 1
Info: PME BACKGROUND SCALING 1
Info: MIN ATOMS PER PATCH    40
Info: INITIAL TEMPERATURE    0
Info: CENTER OF MASS MOVING INITIALLY? NO
Info: DIELECTRIC             1
Info: EXCLUDE                SCALED ONE-FOUR
Info: 1-4 ELECTROSTATICS SCALED BY 0.833333
Info: MODIFIED 1-4 VDW PARAMETERS WILL BE USED
Info: NO DCD TRAJECTORY OUTPUT
Info: NO EXTENDED SYSTEM TRAJECTORY OUTPUT
Info: NO VELOCITY DCD OUTPUT
Info: NO FORCE DCD OUTPUT
Info: OUTPUT FILENAME        ../replicas/rep3/equilibration/eq0
Info: NO RESTART FILE
Info: SWITCHING ACTIVE
Info: SWITCHING ON           10
Info: SWITCHING OFF          12
Info: PAIRLIST DISTANCE      13.5
Info: PAIRLIST SHRINK RATE   0.01
Info: PAIRLIST GROW RATE     0.01
Info: PAIRLIST TRIGGER       0.3
Info: PAIRLISTS PER CYCLE    2
Info: PAIRLISTS ENABLED
Info: MARGIN                 0
Info: HYDROGEN GROUP CUTOFF  2.5
Info: PATCH DIMENSION        16
Info: ENERGY OUTPUT STEPS    500
Info: CROSSTERM ENERGY INCLUDED IN DIHEDRAL
Info: TIMING OUTPUT STEPS    5000
Info: PRESSURE OUTPUT STEPS  500
Info: HARMONIC CONSTRAINTS ACTIVE
Info: HARMONIC CONS EXP      2
Info: HARMONIC CONS SCALING  10
Info: CONJUGATE GRADIENT MINIMIZATION ACTIVE
Info: LINE MINIMIZATION GOAL = 0.001
Info: BABY STEP SIZE = 0.01
Info: TINY STEP SIZE = 1e-06
Info: PARTICLE MESH EWALD (PME) ACTIVE
Info: PME TOLERANCE               1e-06
Info: PME EWALD COEFFICIENT       0.257952
Info: PME INTERPOLATION ORDER     4
Info: PME GRID DIMENSIONS         80 96 80
Info: PME MAXIMUM GRID SPACING    1
Info: FULL ELECTROSTATIC EVALUATION FREQUENCY      2
Info: USING VERLET I (r-RESPA) MTS SCHEME.
Info: C1 SPLITTING OF LONG RANGE ELECTROSTATICS
Info: PLACING ATOMS IN PATCHES BY HYDROGEN GROUPS
Info: RIGID BONDS TO HYDROGEN : ALL
Info:         ERROR TOLERANCE : 1e-05
Info:          MAX ITERATIONS : 100
Info: RIGID WATER USING SETTLE ALGORITHM
Info: RANDOM NUMBER SEED     1503249602
Info: USE HYDROGEN BONDS?    NO
Info: Using AMBER format force field!
Info: AMBER PARM FILE        ../build/complex.top
Info: COORDINATE PDB         ../build/complex.pdb
Info: Exclusions in PARM file will be ignored!
Info: SCNB (VDW SCALING)     2
Info: USING ARITHMETIC MEAN TO COMBINE L-J SIGMA PARAMETERS
Info: SUMMARY OF PARAMETERS:
Info: 71 BONDS
Info: 145 ANGLES
Info:   145 HARMONIC
Info:   0 COSINE-BASED
Info: 76 DIHEDRAL
Info: 0 IMPROPER
Info: 0 CROSSTERM
Info: 0 VDW
Info: 190 VDW_PAIRS
Info: 0 NBTHOLE_PAIRS
Info: STRUCTURE SUMMARY:
Info: 49394 ATOMS
Info: 49448 BONDS
Info: 8698 ANGLES
Info: 18780 DIHEDRALS
Info: 0 IMPROPERS
Info: 0 CROSSTERMS
Info: 0 EXCLUSIONS
Info: 2336 CONSTRAINTS
Info: 47058 RIGID BONDS
Info: 101124 DEGREES OF FREEDOM
Info: 17225 HYDROGEN GROUPS
Info: 4 ATOMS IN LARGEST HYDROGEN GROUP
Info: 17225 MIGRATION GROUPS
Info: 4 ATOMS IN LARGEST MIGRATION GROUP
Info: TOTAL MASS = 301478 amu
Info: TOTAL CHARGE = 1.00115e-05 e
Info: MASS DENSITY = 0.935846 g/cm^3
Info: ATOM DENSITY = 0.0923345 atoms/A^3
Info: ADDED 70656 IMPLICIT EXCLUSIONS
Info: NONBONDED TABLE R-SQUARED SPACING: 0.0625
Info: NONBONDED TABLE SIZE: 769 POINTS
Info: REMOVING COM VELOCITY 0 0 0
TCL: Minimizing for 100 steps
ETITLE: TS BOND ANGLE DIHED IMPRP ELECT VDW BOUNDARY MISC KINETIC TOTAL TEMP POTENTIAL TOTAL3 TEMPAVG PRESSURE GPRESSURE VOLUME PRESSAVG GPRESSAVG
ENERGY: 0 155.4176 1012.2698 2855.7272 0.0000 -154496.7912 207729.2052 0.0468 0.0000 0.0000 57255.8754 0.0000 57255.8754 57255.8754 0.0000 116350.2532 86546.1670 534946.2959 116350.2532 86546.1670
ENERGY: 20 304.7545 935.7911 2893.4663 0.0000 -158672.9400 17936.6596 143.9454 0.0000 0.0000 -136458.3231 0.0000 -136458.3231 -136458.3231 0.0000 16523.9389 -239.4556 534946.2959 16523.9389 -239.4556
ENERGY: 40 198.7414 799.5723 2896.9273 0.0000 -162811.4531 16417.9537 221.3029 0.0000 0.0000 -142276.9555 0.0000 -142276.9555 -142276.9555 0.0000 15011.2704 -2135.4696 534946.2959 15011.2704 -2135.4696
ENERGY: 60 130.5286 715.3440 2898.2165 0.0000 -167496.1532 15446.7545 315.2795 0.0000 0.0000 -147990.0300 0.0000 -147990.0300 -147990.0300 0.0000 13793.8846 -3799.3974 534946.2959 13793.8846 -3799.3974
ENERGY: 80 431.2748 765.6311 2904.3783 0.0000 -169937.5188 15121.1536 372.0120 0.0000 0.0000 -150343.0691 0.0000 -150343.0691 -150343.0691 0.0000 13270.3335 -4577.2415 534946.2959 13270.3335 -4577.2415
ENERGY: 100 119.3896 710.0605 2905.2588 0.0000 -171259.7164 14991.7864 387.3612 0.0000 0.0000 -152145.8598 0.0000 -152145.8598 -152145.8598 0.0000 13056.2649 -4908.1739 534946.2959 13056.2649 -4908.1739
TCL: Setting parameter constraintScaling to 5.0
TCL: Minimizing for 100 steps
ETITLE: TS BOND ANGLE DIHED IMPRP ELECT VDW BOUNDARY MISC KINETIC TOTAL TEMP POTENTIAL TOTAL3 TEMPAVG PRESSURE GPRESSURE VOLUME PRESSAVG GPRESSAVG
ENERGY: 100 119.3896 710.0605 2905.2588 0.0000 -171259.7164 14991.7864 193.6806 0.0000 0.0000 -152339.5405 0.0000 -152339.5405 -152339.5405 0.0000 13672.7710 -23021.8199 534946.2959 13672.7710 -23021.8199
ENERGY: 120 166.4522 692.2081 2910.8260 0.0000 -172914.7676 14833.3506 281.9271 0.0000 0.0000 -154030.0035 0.0000 -154030.0035 -154030.0035 0.0000 13225.2910 -4913.0019 534946.2959 13225.2910 -4913.0019
ENERGY: 140 225.1254 696.9082 2912.9607 0.0000 -174149.5060 14732.6721 321.1855 0.0000 0.0000 -155260.6542 0.0000 -155260.6542 -155260.6542 0.0000 12997.6289 -5265.6557 534946.2959 12997.6289 -5265.6557
ENERGY: 160 270.2434 684.1533 2923.2909 0.0000 -176284.6973 14758.1127 383.2624 0.0000 0.0000 -157265.6346 0.0000 -157265.6346 -157265.6346 0.0000 12739.5274 -5745.1868 534946.2959 12739.5274 -5745.1868
ENERGY: 180 172.7011 724.9572 2929.2191 0.0000 -179192.7581 15054.1942 478.3425 0.0000 0.0000 -159833.3440 0.0000 -159833.3440 -159833.3440 0.0000 12525.3812 -6233.4084 534946.2959 12525.3812 -6233.4084
ENERGY: 200 239.7086 694.1076 2941.4019 0.0000 -181558.3023 15587.4840 546.3314 0.0000 0.0000 -161549.2688 0.0000 -161549.2688 -161549.2688 0.0000 12582.6807 -6420.5078 534946.2959 12582.6807 -6420.5078
TCL: Setting parameter constraintScaling to 2.5
TCL: Minimizing for 100 steps
ETITLE: TS BOND ANGLE DIHED IMPRP ELECT VDW BOUNDARY MISC KINETIC TOTAL TEMP POTENTIAL TOTAL3 TEMPAVG PRESSURE GPRESSURE VOLUME PRESSAVG GPRESSAVG
ENERGY: 200 239.7086 694.1076 2941.4019 0.0000 -181558.3024 15587.4840 273.1657 0.0000 0.0000 -161822.4345 0.0000 -161822.4345 -161822.4345 0.0000 13229.6665 -25651.6413 534946.2959 13229.6665 -25651.6413
ENERGY: 220 245.2197 676.0763 2932.9752 0.0000 -182071.8650 15473.4641 336.6836 0.0000 0.0000 -162407.4460 0.0000 -162407.4460 -162407.4460 0.0000 12975.2956 -6081.9850 534946.2959 12975.2956 -6081.9850
ENERGY: 240 153.7185 693.8945 2928.7681 0.0000 -182681.1091 15530.1243 346.9438 0.0000 0.0000 -163027.6599 0.0000 -163027.6599 -163027.6599 0.0000 13034.0682 -6127.0446 534946.2959 13034.0682 -6127.0446
ENERGY: 260 232.6884 705.1359 2922.3936 0.0000 -183757.4812 15758.3682 380.1572 0.0000 0.0000 -163758.7379 0.0000 -163758.7379 -163758.7379 0.0000 13013.6586 -6236.7388 534946.2959 13013.6586 -6236.7388
ENERGY: 280 202.4173 704.5338 2917.5634 0.0000 -185468.1542 16243.5962 458.9102 0.0000 0.0000 -164941.1334 0.0000 -164941.1334 -164941.1334 0.0000 13140.3901 -6343.5751 534946.2959 13140.3901 -6343.5751
ENERGY: 300 118.2593 637.1305 2916.5622 0.0000 -186063.3980 16435.5573 482.4620 0.0000 0.0000 -165473.4266 0.0000 -165473.4266 -165473.4266 0.0000 13202.1046 -6340.0153 534946.2959 13202.1046 -6340.0153
TCL: Setting parameter constraintScaling to 1.25
TCL: Minimizing for 100 steps
ETITLE: TS BOND ANGLE DIHED IMPRP ELECT VDW BOUNDARY MISC KINETIC TOTAL TEMP POTENTIAL TOTAL3 TEMPAVG PRESSURE GPRESSURE VOLUME PRESSAVG GPRESSAVG
ENERGY: 300 118.2593 637.1305 2916.5622 0.0000 -186063.3980 16435.5573 241.2310 0.0000 0.0000 -165714.6576 0.0000 -165714.6576 -165714.6576 0.0000 13651.1238 -26346.6853 534946.2959 13651.1238 -26346.6853
ENERGY: 320 126.8991 624.8085 2911.3136 0.0000 -186627.6569 16566.1420 273.2242 0.0000 0.0000 -166125.2696 0.0000 -166125.2696 -166125.2696 0.0000 13616.8636 -5978.9973 534946.2959 13616.8636 -5978.9973
ENERGY: 340 131.1304 659.7592 2912.3694 0.0000 -187337.0872 16810.9854 288.7562 0.0000 0.0000 -166534.0868 0.0000 -166534.0868 -166534.0868 0.0000 13747.2296 -5940.0334 534946.2959 13747.2296 -5940.0334
ENERGY: 360 193.9229 682.1977 2912.7467 0.0000 -188063.2576 17025.6151 325.7477 0.0000 0.0000 -166923.0275 0.0000 -166923.0275 -166923.0275 0.0000 13747.2888 -6023.8294 534946.2959 13747.2888 -6023.8294
ENERGY: 380 184.2321 650.7329 2901.8776 0.0000 -188802.7281 17278.8299 347.1818 0.0000 0.0000 -167439.8737 0.0000 -167439.8737 -167439.8737 0.0000 13819.0186 -6019.9736 534946.2959 13819.0186 -6019.9736
ENERGY: 400 236.0981 684.5712 2907.9364 0.0000 -190302.1956 17858.8530 382.5474 0.0000 0.0000 -168232.1894 0.0000 -168232.1894 -168232.1894 0.0000 14051.7506 -5952.9206 534946.2959 14051.7506 -5952.9206
TCL: Setting parameter constraintScaling to 0.625
TCL: Minimizing for 100 steps
ETITLE: TS BOND ANGLE DIHED IMPRP ELECT VDW BOUNDARY MISC KINETIC TOTAL TEMP POTENTIAL TOTAL3 TEMPAVG PRESSURE GPRESSURE VOLUME PRESSAVG GPRESSAVG
ENERGY: 400 236.0981 684.5712 2907.9364 0.0000 -190302.1956 17858.8530 191.2737 0.0000 0.0000 -168423.4631 0.0000 -168423.4631 -168423.4631 0.0000 14346.0207 -26644.6743 534946.2959 14346.0207 -26644.6743
ENERGY: 420 198.9540 725.7884 2898.5489 0.0000 -190907.7310 18009.3853 227.7980 0.0000 0.0000 -168847.2564 0.0000 -168847.2564 -168847.2564 0.0000 14332.6531 -5762.1670 534946.2959 14332.6531 -5762.1670
ENERGY: 440 168.3143 668.5451 2891.8833 0.0000 -191879.7988 18328.1766 265.5091 0.0000 0.0000 -169557.3704 0.0000 -169557.3704 -169557.3704 0.0000 14390.7307 -5786.9607 534946.2959 14390.7307 -5786.9607
ENERGY: 460 146.6604 652.6650 2887.9794 0.0000 -192117.0905 18427.6023 259.7014 0.0000 0.0000 -169742.4821 0.0000 -169742.4821 -169742.4821 0.0000 14495.1738 -5721.1559 534946.2959 14495.1738 -5721.1559
ENERGY: 480 189.4167 683.3286 2905.1351 0.0000 -193507.9024 19033.0863 268.5088 0.0000 0.0000 -170428.4271 0.0000 -170428.4271 -170428.4271 0.0000 14824.9247 -5552.1443 534946.2959 14824.9247 -5552.1443
ENERGY: 500 187.3555 678.4663 2897.2030 0.0000 -195212.0882 19842.8313 313.0659 0.0000 0.0000 -171293.1662 0.0000 -171293.1662 -171293.1662 0.0000 15186.2877 -5361.2893 534946.2959 15186.2877 -5361.2893
TCL: Setting parameter constraintScaling to 0.3125
TCL: Minimizing for 100 steps
ETITLE: TS BOND ANGLE DIHED IMPRP ELECT VDW BOUNDARY MISC KINETIC TOTAL TEMP POTENTIAL TOTAL3 TEMPAVG PRESSURE GPRESSURE VOLUME PRESSAVG GPRESSAVG
ENERGY: 500 187.3555 678.4663 2897.2030 0.0000 -195212.0882 19842.8313 156.5329 0.0000 0.0000 -171449.6992 0.0000 -171449.6992 -171449.6992 0.0000 15389.0492 -26755.6870 534946.2959 15389.0492 -26755.6870
ENERGY: 520 154.3443 647.2741 2878.5823 0.0000 -195416.8936 19816.7230 169.7357 0.0000 0.0000 -171750.2342 0.0000 -171750.2342 -171750.2342 0.0000 15316.1865 -5265.7873 534946.2959 15316.1865 -5265.7873
ENERGY: 540 163.8826 661.6737 2871.1852 0.0000 -195718.0799 19870.9811 188.3186 0.0000 0.0000 -171962.0387 0.0000 -171962.0387 -171962.0387 0.0000 15278.5425 -5333.8677 534946.2959 15278.5425 -5333.8677
ENERGY: 560 348.5313 746.1058 2881.2132 0.0000 -196717.8893 20178.3346 224.7298 0.0000 0.0000 -172338.9746 0.0000 -172338.9746 -172338.9746 0.0000 15326.0954 -5409.3665 534946.2959 15326.0954 -5409.3665
ENERGY: 580 177.6783 669.0776 2865.7200 0.0000 -196819.0545 20228.2378 211.4550 0.0000 0.0000 -172666.8859 0.0000 -172666.8859 -172666.8859 0.0000 15419.9307 -5311.9362 534946.2959 15419.9307 -5311.9362
ENERGY: 600 161.0007 662.6283 2877.0776 0.0000 -197401.2997 20528.9975 208.9130 0.0000 0.0000 -172962.6825 0.0000 -172962.6825 -172962.6825 0.0000 15626.2239 -5186.3659 534946.2959 15626.2239 -5186.3659
TCL: Setting parameter constraintScaling to 0.15625
TCL: Minimizing for 100 steps
ETITLE: TS BOND ANGLE DIHED IMPRP ELECT VDW BOUNDARY MISC KINETIC TOTAL TEMP POTENTIAL TOTAL3 TEMPAVG PRESSURE GPRESSURE VOLUME PRESSAVG GPRESSAVG
ENERGY: 600 161.0007 662.6283 2877.0776 0.0000 -197401.2997 20528.9975 104.4565 0.0000 0.0000 -173067.1390 0.0000 -173067.1390 -173067.1390 0.0000 15745.6611 -26914.4016 534946.2959 15745.6611 -26914.4016
ENERGY: 620 169.2801 650.7842 2861.9986 0.0000 -197722.9795 20560.6436 116.5273 0.0000 0.0000 -173363.7457 0.0000 -173363.7457 -173363.7457 0.0000 15683.7665 -5164.0397 534946.2959 15683.7665 -5164.0397
ENERGY: 640 169.2429 669.1593 2864.6852 0.0000 -197956.7479 20637.9180 124.2173 0.0000 0.0000 -173491.5252 0.0000 -173491.5252 -173491.5252 0.0000 15692.4603 -5176.9774 534946.2959 15692.4603 -5176.9774
ENERGY: 660 168.6522 662.8911 2859.2394 0.0000 -198272.7565 20744.5460 130.2683 0.0000 0.0000 -173707.1595 0.0000 -173707.1595 -173707.1595 0.0000 15724.9124 -5183.6748 534946.2959 15724.9124 -5183.6748
ENERGY: 680 165.3050 664.9156 2861.6744 0.0000 -198548.0009 20854.5802 127.9473 0.0000 0.0000 -173873.5784 0.0000 -173873.5784 -173873.5784 0.0000 15821.3138 -5116.5271 534946.2959 15821.3138 -5116.5271
ENERGY: 700 169.2628 672.3463 2866.6131 0.0000 -199041.1277 21104.2259 129.9180 0.0000 0.0000 -174098.7615 0.0000 -174098.7615 -174098.7615 0.0000 15977.7803 -5015.0460 534946.2959 15977.7803 -5015.0460
TCL: Setting parameter constraintScaling to 0.078125
TCL: Minimizing for 100 steps
ETITLE: TS BOND ANGLE DIHED IMPRP ELECT VDW BOUNDARY MISC KINETIC TOTAL TEMP POTENTIAL TOTAL3 TEMPAVG PRESSURE GPRESSURE VOLUME PRESSAVG GPRESSAVG
ENERGY: 700 169.2628 672.3463 2866.6131 0.0000 -199041.1277 21104.2259 64.9590 0.0000 0.0000 -174163.7205 0.0000 -174163.7205 -174163.7205 0.0000 16045.7957 -27004.1019 534946.2959 16045.7957 -27004.1019
ENERGY: 720 173.9044 660.1082 2849.9420 0.0000 -199338.4368 21138.8586 71.7407 0.0000 0.0000 -174443.8828 0.0000 -174443.8828 -174443.8828 0.0000 15974.1193 -5049.9978 534946.2959 15974.1193 -5049.9978
ENERGY: 740 175.8611 698.8809 2855.1040 0.0000 -199654.1190 21253.1695 77.4060 0.0000 0.0000 -174593.6974 0.0000 -174593.6974 -174593.6974 0.0000 16034.5635 -5044.0535 534946.2959 16034.5635 -5044.0535
ENERGY: 760 250.8300 716.0171 2851.9628 0.0000 -199919.7820 21343.6736 75.9286 0.0000 0.0000 -174681.3699 0.0000 -174681.3699 -174681.3699 0.0000 16093.4483 -5023.0272 534946.2959 16093.4483 -5023.0272
ENERGY: 780 159.4377 658.9193 2850.3832 0.0000 -200093.5029 21433.9190 76.4248 0.0000 0.0000 -174914.4189 0.0000 -174914.4189 -174914.4189 0.0000 16175.4156 -4949.9370 534946.2959 16175.4156 -4949.9370
ENERGY: 800 158.8890 649.1166 2844.8581 0.0000 -200886.7040 21745.5160 83.3692 0.0000 0.0000 -175404.9550 0.0000 -175404.9550 -175404.9550 0.0000 16329.0650 -4886.4105 534946.2959 16329.0650 -4886.4105
TCL: Setting parameter constraintScaling to 0.0390625
TCL: Minimizing for 100 steps
ETITLE: TS BOND ANGLE DIHED IMPRP ELECT VDW BOUNDARY MISC KINETIC TOTAL TEMP POTENTIAL TOTAL3 TEMPAVG PRESSURE GPRESSURE VOLUME PRESSAVG GPRESSAVG
ENERGY: 800 158.8890 649.1166 2844.8581 0.0000 -200886.7040 21745.5160 41.6846 0.0000 0.0000 -175446.6396 0.0000 -175446.6396 -175446.6396 0.0000 16368.5027 -27123.9971 534946.2959 16368.5027 -27123.9971
ENERGY: 820 298.6678 727.0019 2849.4816 0.0000 -201249.8510 21840.0289 45.4124 0.0000 0.0000 -175489.2584 0.0000 -175489.2584 -175489.2584 0.0000 16394.9950 -4894.7813 534946.2959 16394.9950 -4894.7813
ENERGY: 840 180.7420 667.6312 2830.2045 0.0000 -201610.9208 21984.7252 46.5760 0.0000 0.0000 -175901.0418 0.0000 -175901.0418 -175901.0418 0.0000 16428.8986 -4871.4643 534946.2959 16428.8986 -4871.4643
ENERGY: 860 163.6857 655.6323 2830.7068 0.0000 -202222.0588 22240.8454 49.7593 0.0000 0.0000 -176281.4293 0.0000 -176281.4293 -176281.4293 0.0000 16547.4884 -4812.2680 534946.2959 16547.4884 -4812.2680
ENERGY: 880 412.3997 749.3733 2835.8008 0.0000 -202660.6129 22435.0319 52.1684 0.0000 0.0000 -176175.8387 0.0000 -176175.8387 -176175.8387 0.0000 16559.9072 -4824.4181 534946.2959 16559.9072 -4824.4181
ENERGY: 900 176.2608 681.9576 2829.3295 0.0000 -202833.3856 22492.7476 53.2737 0.0000 0.0000 -176599.8164 0.0000 -176599.8164 -176599.8164 0.0000 16702.9485 -4756.2500 534946.2959 16702.9485 -4756.2500
TCL: Setting parameter constraintScaling to 0.01953125
TCL: Minimizing for 100 steps
ETITLE: TS BOND ANGLE DIHED IMPRP ELECT VDW BOUNDARY MISC KINETIC TOTAL TEMP POTENTIAL TOTAL3 TEMPAVG PRESSURE GPRESSURE VOLUME PRESSAVG GPRESSAVG
ENERGY: 900 176.2608 681.9576 2829.3295 0.0000 -202833.3856 22492.7476 26.6368 0.0000 0.0000 -176626.4532 0.0000 -176626.4532 -176626.4532 0.0000 16725.6612 -27232.8314 534946.2959 16725.6612 -27232.8314
ENERGY: 920 246.3895 740.0244 2833.4507 0.0000 -203077.6293 22582.5631 26.8062 0.0000 0.0000 -176648.3953 0.0000 -176648.3953 -176648.3953 0.0000 16866.0734 -4667.8470 534946.2959 16866.0734 -4667.8470
ENERGY: 940 166.2514 653.8651 2824.2881 0.0000 -203120.7020 22603.8710 27.0015 0.0000 0.0000 -176845.4249 0.0000 -176845.4249 -176845.4249 0.0000 16747.0422 -4710.7151 534946.2959 16747.0422 -4710.7151
ENERGY: 960 168.0179 664.8991 2821.4063 0.0000 -203591.3331 22800.8620 28.3492 0.0000 0.0000 -177107.7986 0.0000 -177107.7986 -177107.7986 0.0000 16899.5700 -4639.5027 534946.2959 16899.5700 -4639.5027
ENERGY: 980 173.8472 667.8398 2818.0905 0.0000 -204105.0029 23023.2063 30.2625 0.0000 0.0000 -177391.7567 0.0000 -177391.7567 -177391.7567 0.0000 16981.7497 -4622.4327 534946.2959 16981.7497 -4622.4327
ENERGY: 1000 169.4450 655.6209 2815.5291 0.0000 -204278.0438 23101.4195 30.5764 0.0000 0.0000 -177505.4530 0.0000 -177505.4530 -177505.4530 0.0000 16985.3875 -4616.8154 534946.2959 16985.3875 -4616.8154
TCL: Setting parameter constraintScaling to 0
TCL: Minimizing for 5000 steps
ETITLE: TS BOND ANGLE DIHED IMPRP ELECT VDW BOUNDARY MISC KINETIC TOTAL TEMP POTENTIAL TOTAL3 TEMPAVG PRESSURE GPRESSURE VOLUME PRESSAVG GPRESSAVG
ENERGY: 1000 169.4450 655.6209 2815.5291 0.0000 -204278.0438 23101.4195 0.0000 0.0000 0.0000 -177536.0294 0.0000 -177536.0294 -177536.0294 0.0000 17010.3654 -27299.1300 534946.2959 17010.3654 -27299.1300
ENERGY: 2000 253.3391 704.0296 2803.7451 0.0000 -214375.4872 27543.6382 0.0000 0.0000 0.0000 -183070.7353 0.0000 -183070.7353 -183070.7353 0.0000 19359.8442 -3378.3127 534946.2959 19359.8442 -3378.3127
ENERGY: 3000 168.9953 668.5822 2796.6383 0.0000 -217231.3281 28802.3690 0.0000 0.0000 0.0000 -184794.7433 0.0000 -184794.7433 -184794.7433 0.0000 20060.7439 -2992.1706 534946.2959 20060.7439 -2992.1706
ENERGY: 4000 170.2643 667.9963 2791.2508 0.0000 -218666.6330 29364.5336 0.0000 0.0000 0.0000 -185672.5881 0.0000 -185672.5881 -185672.5881 0.0000 20363.9346 -2837.6284 534946.2959 20363.9346 -2837.6284
ENERGY: 5000 167.4290 667.6944 2786.2472 0.0000 -219527.9227 29718.9578 0.0000 0.0000 0.0000 -186187.5944 0.0000 -186187.5944 -186187.5944 0.0000 20540.3674 -2750.1457 534946.2959 20540.3674 -2750.1457
ENERGY: 6000 167.3426 666.6817 2786.2382 0.0000 -220026.8570 29913.5115 0.0000 0.0000 0.0000 -186493.0830 0.0000 -186493.0830 -186493.0830 0.0000 20645.5656 -2696.9194 534946.2959 20645.5656 -2696.9194
