Info: SIMULATION PARAMETERS:
Info: TIMESTEP               2
Info: NUMBER OF STEPS        0
Info: STEPS PER CYCLE        10
Info: PERIODIC CELL BASIS 1  72.449 0 0
Info: PERIODIC CELL BASIS 2  0 93.247 0
Info: PERIODIC CELL BASIS 3  0 0 79.185
Info: PERIODIC CELL CENTER   -0.248 -0.156 -0.047
Info: WRAPPING WATERS AROUND PERIODIC BOUNDARIES ON OUTPUT.
Info: WRAPPING ALL CLUSTERS AROUND PERIODIC BOUNDARIES ON OUTPUT.
Info: FIRST LDB TIMESTEP     50
Info: LAST LDB TIMESTEP     -1
Info: HOM BACKGROUND SCALING 1
Info: PME BACKGROUND SCALING 1
Info: MIN ATOMS PER PATCH    40
Info: INITIAL TEMPERATURE    0
Info: CENTER OF MASS MOVING INITIALLY? NO
Info: DIELECTRIC             1
Info: EXCLUDE                SCALED ONE-FOUR
Info: 1-4 ELECTROSTATICS SCALED BY 0.833333
Info: MODIFIED 1-4 VDW PARAMETERS WILL BE USED
Info: NO DCD TRAJECTORY OUTPUT
Info: NO EXTENDED SYSTEM TRAJECTORY OUTPUT
Info: NO VELOCITY DCD OUTPUT
Info: NO FORCE DCD OUTPUT
Info: OUTPUT FILENAME        ../replicas/rep50/equilibration/eq0
Info: NO RESTART FILE
Info: SWITCHING ACTIVE
Info: SWITCHING ON           10
Info: SWITCHING OFF          12
Info: PAIRLIST DISTANCE      13.5
Info: PAIRLIST SHRINK RATE   0.01
Info: PAIRLIST GROW RATE     0.01
Info: PAIRLIST TRIGGER       0.3
Info: PAIRLISTS PER CYCLE    2
Info: PAIRLISTS ENABLED
Info: MARGIN                 0
Info: HYDROGEN GROUP CUTOFF  2.5
Info: PATCH DIMENSION        16
Info: ENERGY OUTPUT STEPS    500
Info: CROSSTERM ENERGY INCLUDED IN DIHEDRAL
Info: TIMING OUTPUT STEPS    5000
Info: PRESSURE OUTPUT STEPS  500
Info: HARMONIC CONSTRAINTS ACTIVE
Info: HARMONIC CONS EXP      2
Info: HARMONIC CONS SCALING  10
Info: CONJUGATE GRADIENT MINIMIZATION ACTIVE
Info: LINE MINIMIZATION GOAL = 0.001
Info: BABY STEP SIZE = 0.01
Info: TINY STEP SIZE = 1e-06
Info: PARTICLE MESH EWALD (PME) ACTIVE
Info: PME TOLERANCE               1e-06
Info: PME EWALD COEFFICIENT       0.257952
Info: PME INTERPOLATION ORDER     4
Info: PME GRID DIMENSIONS         80 96 80
Info: PME MAXIMUM GRID SPACING    1
Info: FULL ELECTROSTATIC EVALUATION FREQUENCY      2
Info: USING VERLET I (r-RESPA) MTS SCHEME.
Info: C1 SPLITTING OF LONG RANGE ELECTROSTATICS
Info: PLACING ATOMS IN PATCHES BY HYDROGEN GROUPS
Info: RIGID BONDS TO HYDROGEN : ALL
Info:         ERROR TOLERANCE : 1e-05
Info:          MAX ITERATIONS : 100
Info: RIGID WATER USING SETTLE ALGORITHM
Info: RANDOM NUMBER SEED     1503694324
Info: USE HYDROGEN BONDS?    NO
Info: Using AMBER format force field!
Info: AMBER PARM FILE        ../build/complex.top
Info: COORDINATE PDB         ../build/complex.pdb
Info: Exclusions in PARM file will be ignored!
Info: SCNB (VDW SCALING)     2
Info: USING ARITHMETIC MEAN TO COMBINE L-J SIGMA PARAMETERS
Info: SUMMARY OF PARAMETERS:
Info: 71 BONDS
Info: 145 ANGLES
Info: 76 DIHEDRAL
Info: 0 IMPROPER
Info: 0 CROSSTERM
Info: 0 VDW
Info: 190 VDW_PAIRS
Info: 0 NBTHOLE_PAIRS
Info: STRUCTURE SUMMARY:
Info: 49394 ATOMS
Info: 49448 BONDS
Info: 8698 ANGLES
Info: 18780 DIHEDRALS
Info: 0 IMPROPERS
Info: 0 CROSSTERMS
Info: 0 EXCLUSIONS
Info: 2336 CONSTRAINTS
Info: 47058 RIGID BONDS
Info: 101124 DEGREES OF FREEDOM
Info: 17225 HYDROGEN GROUPS
Info: 4 ATOMS IN LARGEST HYDROGEN GROUP
Info: 17225 MIGRATION GROUPS
Info: 4 ATOMS IN LARGEST MIGRATION GROUP
Info: TOTAL MASS = 301478 amu
Info: TOTAL CHARGE = 1.00115e-05 e
Info: MASS DENSITY = 0.935846 g/cm^3
Info: ATOM DENSITY = 0.0923345 atoms/A^3
Info: ADDED 70656 IMPLICIT EXCLUSIONS
Info: NONBONDED TABLE R-SQUARED SPACING: 0.0625
Info: NONBONDED TABLE SIZE: 769 POINTS
Info: REMOVING COM VELOCITY 0 0 0
TCL: Minimizing for 100 steps
ETITLE: TS BOND ANGLE DIHED IMPRP ELECT VDW BOUNDARY MISC KINETIC TOTAL TEMP POTENTIAL TOTAL3 TEMPAVG PRESSURE GPRESSURE VOLUME PRESSAVG GPRESSAVG
ENERGY: 0 155.4176 1012.2698 2855.7272 0.0000 -154496.7911 207729.2052 0.0468 0.0000 0.0000 57255.8755 0.0000 57255.8755 57255.8755 0.0000 116350.2532 86546.1670 534946.2959 116350.2532 86546.1670
ENERGY: 20 304.7553 935.7912 2893.4663 0.0000 -158672.9406 17936.6593 143.9454 0.0000 0.0000 -136458.3230 0.0000 -136458.3230 -136458.3230 0.0000 16523.9386 -239.4559 534946.2959 16523.9386 -239.4559
ENERGY: 40 198.7438 799.5727 2896.9273 0.0000 -162811.4529 16417.9537 221.3030 0.0000 0.0000 -142276.9524 0.0000 -142276.9524 -142276.9524 0.0000 15011.2704 -2135.4697 534946.2959 15011.2704 -2135.4697
ENERGY: 60 130.5284 715.3440 2898.2166 0.0000 -167496.1554 15446.7542 315.2796 0.0000 0.0000 -147990.0327 0.0000 -147990.0327 -147990.0327 0.0000 13793.8840 -3799.3982 534946.2959 13793.8840 -3799.3982
ENERGY: 80 431.2728 765.6308 2904.3785 0.0000 -169937.5223 15121.1532 372.0121 0.0000 0.0000 -150343.0749 0.0000 -150343.0749 -150343.0749 0.0000 13270.3324 -4577.2425 534946.2959 13270.3324 -4577.2425
ENERGY: 100 129.7160 708.0659 2904.2780 0.0000 -171050.0720 15018.6523 384.2001 0.0000 0.0000 -151905.1598 0.0000 -151905.1598 -151905.1598 0.0000 13092.9116 -4843.6340 534946.2959 13092.9116 -4843.6340
TCL: Setting parameter constraintScaling to 5.0
TCL: Minimizing for 100 steps
ETITLE: TS BOND ANGLE DIHED IMPRP ELECT VDW BOUNDARY MISC KINETIC TOTAL TEMP POTENTIAL TOTAL3 TEMPAVG PRESSURE GPRESSURE VOLUME PRESSAVG GPRESSAVG
ENERGY: 100 129.7160 708.0659 2904.2780 0.0000 -171050.0720 15018.6523 192.1000 0.0000 0.0000 -152097.2599 0.0000 -152097.2599 -152097.2599 0.0000 13703.5069 -22944.4569 534946.2959 13703.5069 -22944.4569
ENERGY: 120 118.6821 680.2877 2909.9066 0.0000 -172396.3249 14830.1197 259.9552 0.0000 0.0000 -153597.3736 0.0000 -153597.3736 -153597.3736 0.0000 13320.9456 -4756.3101 534946.2959 13320.9456 -4756.3101
ENERGY: 140 109.1493 671.1465 2912.0864 0.0000 -174830.3212 14716.1435 337.7323 0.0000 0.0000 -156084.0633 0.0000 -156084.0633 -156084.0633 0.0000 12908.9504 -5423.1611 534946.2959 12908.9504 -5423.1611
ENERGY: 160 303.0365 691.2547 2915.1772 0.0000 -176082.4798 14739.2590 369.8367 0.0000 0.0000 -157063.9158 0.0000 -157063.9158 -157063.9158 0.0000 12780.5570 -5672.9567 534946.2959 12780.5570 -5672.9567
ENERGY: 180 182.2005 640.7482 2917.0630 0.0000 -177289.2977 14805.0489 391.8952 0.0000 0.0000 -158352.3419 0.0000 -158352.3419 -158352.3419 0.0000 12715.3683 -5862.0923 534946.2959 12715.3683 -5862.0923
ENERGY: 200 200.7981 672.8131 2923.8895 0.0000 -179263.2012 15029.7021 438.8885 0.0000 0.0000 -159997.1100 0.0000 -159997.1100 -159997.1100 0.0000 12652.1333 -6138.9157 534946.2959 12652.1333 -6138.9157
TCL: Setting parameter constraintScaling to 2.5
TCL: Minimizing for 100 steps
ETITLE: TS BOND ANGLE DIHED IMPRP ELECT VDW BOUNDARY MISC KINETIC TOTAL TEMP POTENTIAL TOTAL3 TEMPAVG PRESSURE GPRESSURE VOLUME PRESSAVG GPRESSAVG
ENERGY: 200 200.7981 672.8131 2923.8895 0.0000 -179263.2012 15029.7021 219.4442 0.0000 0.0000 -160216.5542 0.0000 -160216.5542 -160216.5542 0.0000 13194.6051 -25223.9520 534946.2959 13194.6051 -25223.9520
ENERGY: 220 129.4518 648.4360 2922.2173 0.0000 -180050.7546 15072.6347 269.1118 0.0000 0.0000 -161008.9030 0.0000 -161008.9030 -161008.9030 0.0000 13073.4400 -5812.6569 534946.2959 13073.4400 -5812.6569
ENERGY: 240 166.8024 631.3643 2922.8569 0.0000 -181876.9497 15336.5329 358.8994 0.0000 0.0000 -162460.4937 0.0000 -162460.4937 -162460.4937 0.0000 12913.7580 -6142.9719 534946.2959 12913.7580 -6142.9719
ENERGY: 260 364.6694 681.2933 2926.7260 0.0000 -184022.6591 15849.6616 463.6461 0.0000 0.0000 -163736.6628 0.0000 -163736.6628 -163736.6628 0.0000 12946.5463 -6358.1887 534946.2959 12946.5463 -6358.1887
ENERGY: 280 136.1665 645.1713 2925.3860 0.0000 -186222.3424 16666.6129 538.8857 0.0000 0.0000 -165310.1200 0.0000 -165310.1200 -165310.1200 0.0000 13194.7746 -6336.9652 534946.2959 13194.7746 -6336.9652
ENERGY: 300 129.0635 634.4066 2921.8497 0.0000 -187696.8933 17313.4962 557.1086 0.0000 0.0000 -166140.9687 0.0000 -166140.9687 -166140.9687 0.0000 13543.4229 -6161.0308 534946.2959 13543.4229 -6161.0308
TCL: Setting parameter constraintScaling to 1.25
TCL: Minimizing for 100 steps
ETITLE: TS BOND ANGLE DIHED IMPRP ELECT VDW BOUNDARY MISC KINETIC TOTAL TEMP POTENTIAL TOTAL3 TEMPAVG PRESSURE GPRESSURE VOLUME PRESSAVG GPRESSAVG
ENERGY: 300 129.0635 634.4066 2921.8497 0.0000 -187696.8933 17313.4962 278.5543 0.0000 0.0000 -166419.5230 0.0000 -166419.5230 -166419.5230 0.0000 14034.6503 -26312.9020 534946.2959 14034.6503 -26312.9020
ENERGY: 320 135.2108 631.8421 2912.3660 0.0000 -188177.8232 17273.3259 319.0266 0.0000 0.0000 -166906.0518 0.0000 -166906.0518 -166906.0518 0.0000 13913.1860 -5856.5965 534946.2959 13913.1860 -5856.5965
ENERGY: 340 211.6809 635.6885 2899.6883 0.0000 -189817.0737 17634.8279 389.0970 0.0000 0.0000 -168046.0911 0.0000 -168046.0911 -168046.0911 0.0000 13920.1869 -6028.4967 534946.2959 13920.1869 -6028.4967
ENERGY: 360 236.0953 647.3134 2909.1464 0.0000 -190651.8581 17968.1332 380.9409 0.0000 0.0000 -168510.2289 0.0000 -168510.2289 -168510.2289 0.0000 14083.1436 -5951.1878 534946.2959 14083.1436 -5951.1878
ENERGY: 380 174.8973 648.5184 2904.9629 0.0000 -192258.2556 18778.2222 365.3937 0.0000 0.0000 -169386.2610 0.0000 -169386.2610 -169386.2610 0.0000 14625.5491 -5618.6445 534946.2959 14625.5491 -5618.6445
ENERGY: 400 133.3497 649.1160 2906.6903 0.0000 -194563.4206 19927.8451 425.5801 0.0000 0.0000 -170520.8393 0.0000 -170520.8393 -170520.8393 0.0000 15128.4659 -5367.3603 534946.2959 15128.4659 -5367.3603
TCL: Setting parameter constraintScaling to 0.625
TCL: Minimizing for 100 steps
ETITLE: TS BOND ANGLE DIHED IMPRP ELECT VDW BOUNDARY MISC KINETIC TOTAL TEMP POTENTIAL TOTAL3 TEMPAVG PRESSURE GPRESSURE VOLUME PRESSAVG GPRESSAVG
ENERGY: 400 133.3497 649.1160 2906.6903 0.0000 -194563.4206 19927.8451 212.7900 0.0000 0.0000 -170733.6294 0.0000 -170733.6294 -170733.6294 0.0000 15436.6157 -26563.4860 534946.2959 15436.6157 -26563.4860
ENERGY: 420 149.6045 626.5451 2881.3795 0.0000 -194820.2414 19747.8701 240.6462 0.0000 0.0000 -171174.1959 0.0000 -171174.1959 -171174.1959 0.0000 15265.9324 -5262.1032 534946.2959 15265.9324 -5262.1032
ENERGY: 440 151.3557 633.7597 2885.0385 0.0000 -195161.0619 19758.2608 268.6843 0.0000 0.0000 -171463.9629 0.0000 -171463.9629 -171463.9629 0.0000 15183.3299 -5374.4827 534946.2959 15183.3299 -5374.4827
ENERGY: 460 146.7697 636.8976 2872.8261 0.0000 -196007.6623 19995.3575 315.5580 0.0000 0.0000 -172040.2534 0.0000 -172040.2534 -172040.2534 0.0000 15220.0474 -5419.9517 534946.2959 15220.0474 -5419.9517
ENERGY: 480 164.2016 647.1112 2883.1773 0.0000 -196360.3502 20114.5575 318.5784 0.0000 0.0000 -172232.7242 0.0000 -172232.7242 -172232.7242 0.0000 15277.0220 -5413.0901 534946.2959 15277.0220 -5413.0901
ENERGY: 500 169.0209 650.1213 2870.4354 0.0000 -197294.1910 20581.1785 313.8376 0.0000 0.0000 -172709.5974 0.0000 -172709.5974 -172709.5974 0.0000 15601.9196 -5211.5156 534946.2959 15601.9196 -5211.5156
TCL: Setting parameter constraintScaling to 0.3125
TCL: Minimizing for 100 steps
ETITLE: TS BOND ANGLE DIHED IMPRP ELECT VDW BOUNDARY MISC KINETIC TOTAL TEMP POTENTIAL TOTAL3 TEMPAVG PRESSURE GPRESSURE VOLUME PRESSAVG GPRESSAVG
ENERGY: 500 169.0209 650.1213 2870.4354 0.0000 -197294.1910 20581.1785 156.9188 0.0000 0.0000 -172866.5161 0.0000 -172866.5161 -172866.5161 0.0000 15795.2361 -26854.5661 534946.2959 15795.2361 -26854.5661
ENERGY: 520 269.8386 676.0364 2863.6643 0.0000 -197666.5676 20617.8706 179.3934 0.0000 0.0000 -173059.7643 0.0000 -173059.7643 -173059.7643 0.0000 15770.1282 -5102.5415 534946.2959 15770.1282 -5102.5415
ENERGY: 540 179.8182 640.3584 2861.8011 0.0000 -198040.8032 20733.4498 198.5795 0.0000 0.0000 -173426.7963 0.0000 -173426.7963 -173426.7963 0.0000 15660.5633 -5202.5859 534946.2959 15660.5633 -5202.5859
ENERGY: 560 156.7378 665.9941 2863.9937 0.0000 -198411.4627 20839.8374 207.7941 0.0000 0.0000 -173677.1057 0.0000 -173677.1057 -173677.1057 0.0000 15793.7054 -5150.9678 534946.2959 15793.7054 -5150.9678
ENERGY: 580 151.3628 635.5169 2865.8294 0.0000 -198986.2599 21104.8474 208.3361 0.0000 0.0000 -174020.3674 0.0000 -174020.3674 -174020.3674 0.0000 15935.0997 -5068.7862 534946.2959 15935.0997 -5068.7862
ENERGY: 600 156.6122 656.5737 2858.3482 0.0000 -200474.6309 21797.3355 236.0691 0.0000 0.0000 -174769.6923 0.0000 -174769.6923 -174769.6923 0.0000 16229.8337 -4935.4391 534946.2959 16229.8337 -4935.4391
TCL: Setting parameter constraintScaling to 0.15625
TCL: Minimizing for 100 steps
ETITLE: TS BOND ANGLE DIHED IMPRP ELECT VDW BOUNDARY MISC KINETIC TOTAL TEMP POTENTIAL TOTAL3 TEMPAVG PRESSURE GPRESSURE VOLUME PRESSAVG GPRESSAVG
ENERGY: 600 156.6122 656.5737 2858.3482 0.0000 -200474.6309 21797.3355 118.0345 0.0000 0.0000 -174887.7268 0.0000 -174887.7268 -174887.7268 0.0000 16354.4977 -27066.7316 534946.2959 16354.4977 -27066.7316
ENERGY: 620 150.1973 660.4570 2857.6785 0.0000 -200615.5556 21749.0897 126.1158 0.0000 0.0000 -175072.0173 0.0000 -175072.0173 -175072.0173 0.0000 16341.1427 -4860.4720 534946.2959 16341.1427 -4860.4720
ENERGY: 640 156.7301 652.9821 2844.0959 0.0000 -200922.0517 21801.4546 138.1769 0.0000 0.0000 -175328.6121 0.0000 -175328.6121 -175328.6121 0.0000 16333.2636 -4902.5366 534946.2959 16333.2636 -4902.5366
ENERGY: 660 153.2217 658.4201 2843.4000 0.0000 -201270.1904 21912.4767 144.7906 0.0000 0.0000 -175557.8813 0.0000 -175557.8813 -175557.8813 0.0000 16377.0920 -4900.9320 534946.2959 16377.0920 -4900.9320
ENERGY: 680 157.2852 647.6677 2843.6928 0.0000 -201737.3150 22119.3078 147.4381 0.0000 0.0000 -175821.9234 0.0000 -175821.9234 -175821.9234 0.0000 16479.0142 -4844.7832 534946.2959 16479.0142 -4844.7832
ENERGY: 700 162.3879 652.7734 2840.2161 0.0000 -202019.5821 22215.4906 154.5120 0.0000 0.0000 -175994.2021 0.0000 -175994.2021 -175994.2021 0.0000 16464.1063 -4874.7051 534946.2959 16464.1063 -4874.7051
TCL: Setting parameter constraintScaling to 0.078125
TCL: Minimizing for 100 steps
ETITLE: TS BOND ANGLE DIHED IMPRP ELECT VDW BOUNDARY MISC KINETIC TOTAL TEMP POTENTIAL TOTAL3 TEMPAVG PRESSURE GPRESSURE VOLUME PRESSAVG GPRESSAVG
ENERGY: 700 162.3879 652.7734 2840.2161 0.0000 -202019.5821 22215.4906 77.2560 0.0000 0.0000 -176071.4581 0.0000 -176071.4581 -176071.4581 0.0000 16535.6801 -27239.7457 534946.2959 16535.6801 -27239.7457
ENERGY: 720 169.6948 653.4610 2837.0843 0.0000 -202198.3669 22266.5612 79.9128 0.0000 0.0000 -176191.6529 0.0000 -176191.6529 -176191.6529 0.0000 16573.0112 -4792.4242 534946.2959 16573.0112 -4792.4242
ENERGY: 740 176.5000 649.6929 2832.2058 0.0000 -202549.7844 22403.2811 83.4483 0.0000 0.0000 -176404.6563 0.0000 -176404.6563 -176404.6563 0.0000 16651.1567 -4757.1915 534946.2959 16651.1567 -4757.1915
ENERGY: 760 166.4160 649.0285 2833.4078 0.0000 -202779.1875 22500.4236 85.9327 0.0000 0.0000 -176543.9789 0.0000 -176543.9789 -176543.9789 0.0000 16672.8106 -4768.3536 534946.2959 16672.8106 -4768.3536
ENERGY: 780 163.7422 651.4877 2828.4576 0.0000 -203025.6314 22587.2193 88.7895 0.0000 0.0000 -176705.9351 0.0000 -176705.9351 -176705.9351 0.0000 16755.5319 -4713.9199 534946.2959 16755.5319 -4713.9199
ENERGY: 800 166.7566 650.3525 2824.7733 0.0000 -203600.1470 22831.7497 94.9531 0.0000 0.0000 -177031.5618 0.0000 -177031.5618 -177031.5618 0.0000 16844.1690 -4680.2325 534946.2959 16844.1690 -4680.2325
TCL: Setting parameter constraintScaling to 0.0390625
TCL: Minimizing for 100 steps
ETITLE: TS BOND ANGLE DIHED IMPRP ELECT VDW BOUNDARY MISC KINETIC TOTAL TEMP POTENTIAL TOTAL3 TEMPAVG PRESSURE GPRESSURE VOLUME PRESSAVG GPRESSAVG
ENERGY: 800 166.7566 650.3525 2824.7733 0.0000 -203600.1470 22831.7497 47.4765 0.0000 0.0000 -177079.0384 0.0000 -177079.0384 -177079.0384 0.0000 16884.7961 -27263.9032 534946.2959 16884.7961 -27263.9032
ENERGY: 820 323.4440 719.7822 2829.4282 0.0000 -203947.0538 22979.5332 49.7500 0.0000 0.0000 -177045.1161 0.0000 -177045.1161 -177045.1161 0.0000 16936.3781 -4648.2610 534946.2959 16936.3781 -4648.2610
ENERGY: 840 177.6996 654.2012 2819.7437 0.0000 -204261.1813 23113.2703 51.4799 0.0000 0.0000 -177444.7866 0.0000 -177444.7866 -177444.7866 0.0000 17010.5040 -4591.1240 534946.2959 17010.5040 -4591.1240
ENERGY: 860 206.3991 668.2153 2820.7820 0.0000 -204660.5197 23296.9786 53.7496 0.0000 0.0000 -177614.3951 0.0000 -177614.3951 -177614.3951 0.0000 17076.5635 -4583.9066 534946.2959 17076.5635 -4583.9066
ENERGY: 880 379.4001 723.5920 2820.6804 0.0000 -205135.1278 23493.2995 56.5830 0.0000 0.0000 -177661.5728 0.0000 -177661.5728 -177661.5728 0.0000 17263.3175 -4483.4449 534946.2959 17263.3175 -4483.4449
ENERGY: 900 166.8728 665.5378 2811.6140 0.0000 -205594.6218 23713.7769 59.5816 0.0000 0.0000 -178177.2387 0.0000 -178177.2387 -178177.2387 0.0000 17373.2391 -4408.1308 534946.2959 17373.2391 -4408.1308
TCL: Setting parameter constraintScaling to 0.01953125
TCL: Minimizing for 100 steps
ETITLE: TS BOND ANGLE DIHED IMPRP ELECT VDW BOUNDARY MISC KINETIC TOTAL TEMP POTENTIAL TOTAL3 TEMPAVG PRESSURE GPRESSURE VOLUME PRESSAVG GPRESSAVG
ENERGY: 900 166.8728 665.5378 2811.6140 0.0000 -205594.6218 23713.7769 29.7908 0.0000 0.0000 -178207.0295 0.0000 -178207.0295 -178207.0295 0.0000 17396.9361 -27227.2791 534946.2959 17396.9361 -27227.2791
ENERGY: 920 157.8882 659.6953 2811.6276 0.0000 -205745.4171 23780.5526 30.2894 0.0000 0.0000 -178305.3640 0.0000 -178305.3640 -178305.3640 0.0000 17428.1260 -4373.7224 534946.2959 17428.1260 -4373.7224
ENERGY: 940 162.9954 650.0476 2808.9549 0.0000 -205968.7229 23873.4492 31.1909 0.0000 0.0000 -178442.0848 0.0000 -178442.0848 -178442.0848 0.0000 17433.7002 -4380.9035 534946.2959 17433.7002 -4380.9035
ENERGY: 960 166.4605 658.6496 2808.0165 0.0000 -206189.7495 23960.5669 32.0114 0.0000 0.0000 -178564.0447 0.0000 -178564.0447 -178564.0447 0.0000 17492.0638 -4348.4549 534946.2959 17492.0638 -4348.4549
ENERGY: 980 169.1665 650.2437 2805.4754 0.0000 -206695.1551 24185.3502 33.8512 0.0000 0.0000 -178851.0682 0.0000 -178851.0682 -178851.0682 0.0000 17587.0374 -4305.3222 534946.2959 17587.0374 -4305.3222
ENERGY: 1000 164.6232 651.0896 2803.3362 0.0000 -207172.3252 24422.8443 35.8423 0.0000 0.0000 -179094.5896 0.0000 -179094.5896 -179094.5896 0.0000 17703.9597 -4235.6751 534946.2959 17703.9597 -4235.6751
TCL: Setting parameter constraintScaling to 0
TCL: Minimizing for 5000 steps
ETITLE: TS BOND ANGLE DIHED IMPRP ELECT VDW BOUNDARY MISC KINETIC TOTAL TEMP POTENTIAL TOTAL3 TEMPAVG PRESSURE GPRESSURE VOLUME PRESSAVG GPRESSAVG
ENERGY: 1000 164.6232 651.0896 2803.3362 0.0000 -207172.3252 24422.8443 0.0000 0.0000 0.0000 -179130.4319 0.0000 -179130.4319 -179130.4319 0.0000 17730.8592 -27262.8620 534946.2959 17730.8592 -27262.8620
ENERGY: 2000 174.6249 667.0982 2800.0144 0.0000 -215008.3958 27802.1939 0.0000 0.0000 0.0000 -183564.4643 0.0000 -183564.4643 -183564.4643 0.0000 19541.9329 -3283.6530 534946.2959 19541.9329 -3283.6530
ENERGY: 3000 165.1644 662.1763 2796.6674 0.0000 -217659.9902 28935.0288 0.0000 0.0000 0.0000 -185100.9533 0.0000 -185100.9533 -185100.9533 0.0000 20147.3066 -2958.1278 534946.2959 20147.3066 -2958.1278
ENERGY: 4000 165.4897 662.0033 2787.9677 0.0000 -218960.4867 29476.0096 0.0000 0.0000 0.0000 -185869.0166 0.0000 -185869.0166 -185869.0166 0.0000 20430.3389 -2816.1907 534946.2959 20430.3389 -2816.1907
ENERGY: 5000 164.7364 663.3246 2789.9276 0.0000 -219690.7798 29826.2621 0.0000 0.0000 0.0000 -186246.5290 0.0000 -186246.5290 -186246.5290 0.0000 20613.4797 -2687.1349 534946.2959 20613.4797 -2687.1349
ENERGY: 6000 165.3180 664.3201 2789.9339 0.0000 -220014.1123 29954.8767 0.0000 0.0000 0.0000 -186439.6636 0.0000 -186439.6636 -186439.6636 0.0000 20675.9003 -2656.9583 534946.2959 20675.9003 -2656.9583
