Info: SIMULATION PARAMETERS:
Info: TIMESTEP               2
Info: NUMBER OF STEPS        0
Info: STEPS PER CYCLE        10
Info: PERIODIC CELL BASIS 1  72.449 0 0
Info: PERIODIC CELL BASIS 2  0 93.247 0
Info: PERIODIC CELL BASIS 3  0 0 79.185
Info: PERIODIC CELL CENTER   -0.248 -0.156 -0.047
Info: WRAPPING WATERS AROUND PERIODIC BOUNDARIES ON OUTPUT.
Info: WRAPPING ALL CLUSTERS AROUND PERIODIC BOUNDARIES ON OUTPUT.
Info: FIRST LDB TIMESTEP     50
Info: LAST LDB TIMESTEP     -1
Info: HOM BACKGROUND SCALING 1
Info: PME BACKGROUND SCALING 1
Info: MIN ATOMS PER PATCH    40
Info: INITIAL TEMPERATURE    0
Info: CENTER OF MASS MOVING INITIALLY? NO
Info: DIELECTRIC             1
Info: EXCLUDE                SCALED ONE-FOUR
Info: 1-4 ELECTROSTATICS SCALED BY 0.833333
Info: MODIFIED 1-4 VDW PARAMETERS WILL BE USED
Info: NO DCD TRAJECTORY OUTPUT
Info: NO EXTENDED SYSTEM TRAJECTORY OUTPUT
Info: NO VELOCITY DCD OUTPUT
Info: NO FORCE DCD OUTPUT
Info: OUTPUT FILENAME        ../replicas/rep28/equilibration/eq0
Info: NO RESTART FILE
Info: SWITCHING ACTIVE
Info: SWITCHING ON           10
Info: SWITCHING OFF          12
Info: PAIRLIST DISTANCE      13.5
Info: PAIRLIST SHRINK RATE   0.01
Info: PAIRLIST GROW RATE     0.01
Info: PAIRLIST TRIGGER       0.3
Info: PAIRLISTS PER CYCLE    2
Info: PAIRLISTS ENABLED
Info: MARGIN                 0
Info: HYDROGEN GROUP CUTOFF  2.5
Info: PATCH DIMENSION        16
Info: ENERGY OUTPUT STEPS    500
Info: CROSSTERM ENERGY INCLUDED IN DIHEDRAL
Info: TIMING OUTPUT STEPS    5000
Info: PRESSURE OUTPUT STEPS  500
Info: HARMONIC CONSTRAINTS ACTIVE
Info: HARMONIC CONS EXP      2
Info: HARMONIC CONS SCALING  10
Info: CONJUGATE GRADIENT MINIMIZATION ACTIVE
Info: LINE MINIMIZATION GOAL = 0.001
Info: BABY STEP SIZE = 0.01
Info: TINY STEP SIZE = 1e-06
Info: PARTICLE MESH EWALD (PME) ACTIVE
Info: PME TOLERANCE               1e-06
Info: PME EWALD COEFFICIENT       0.257952
Info: PME INTERPOLATION ORDER     4
Info: PME GRID DIMENSIONS         80 96 80
Info: PME MAXIMUM GRID SPACING    1
Info: FULL ELECTROSTATIC EVALUATION FREQUENCY      2
Info: USING VERLET I (r-RESPA) MTS SCHEME.
Info: C1 SPLITTING OF LONG RANGE ELECTROSTATICS
Info: PLACING ATOMS IN PATCHES BY HYDROGEN GROUPS
Info: RIGID BONDS TO HYDROGEN : ALL
Info:         ERROR TOLERANCE : 1e-05
Info:          MAX ITERATIONS : 100
Info: RIGID WATER USING SETTLE ALGORITHM
Info: RANDOM NUMBER SEED     1503692267
Info: USE HYDROGEN BONDS?    NO
Info: Using AMBER format force field!
Info: AMBER PARM FILE        ../build/complex.top
Info: COORDINATE PDB         ../build/complex.pdb
Info: Exclusions in PARM file will be ignored!
Info: SCNB (VDW SCALING)     2
Info: USING ARITHMETIC MEAN TO COMBINE L-J SIGMA PARAMETERS
Info: SUMMARY OF PARAMETERS:
Info: 71 BONDS
Info: 145 ANGLES
Info: 76 DIHEDRAL
Info: 0 IMPROPER
Info: 0 CROSSTERM
Info: 0 VDW
Info: 190 VDW_PAIRS
Info: 0 NBTHOLE_PAIRS
Info: STRUCTURE SUMMARY:
Info: 49394 ATOMS
Info: 49448 BONDS
Info: 8698 ANGLES
Info: 18780 DIHEDRALS
Info: 0 IMPROPERS
Info: 0 CROSSTERMS
Info: 0 EXCLUSIONS
Info: 2336 CONSTRAINTS
Info: 47058 RIGID BONDS
Info: 101124 DEGREES OF FREEDOM
Info: 17225 HYDROGEN GROUPS
Info: 4 ATOMS IN LARGEST HYDROGEN GROUP
Info: 17225 MIGRATION GROUPS
Info: 4 ATOMS IN LARGEST MIGRATION GROUP
Info: TOTAL MASS = 301478 amu
Info: TOTAL CHARGE = 1.00115e-05 e
Info: MASS DENSITY = 0.935846 g/cm^3
Info: ATOM DENSITY = 0.0923345 atoms/A^3
Info: ADDED 70656 IMPLICIT EXCLUSIONS
Info: NONBONDED TABLE R-SQUARED SPACING: 0.0625
Info: NONBONDED TABLE SIZE: 769 POINTS
Info: REMOVING COM VELOCITY 0 0 0
TCL: Minimizing for 100 steps
ETITLE: TS BOND ANGLE DIHED IMPRP ELECT VDW BOUNDARY MISC KINETIC TOTAL TEMP POTENTIAL TOTAL3 TEMPAVG PRESSURE GPRESSURE VOLUME PRESSAVG GPRESSAVG
ENERGY: 0 155.4176 1012.2698 2855.7272 0.0000 -154496.7912 207729.2052 0.0468 0.0000 0.0000 57255.8754 0.0000 57255.8754 57255.8754 0.0000 116350.2532 86546.1670 534946.2959 116350.2532 86546.1670
ENERGY: 20 304.7571 935.7914 2893.4663 0.0000 -158672.9420 17936.6586 143.9455 0.0000 0.0000 -136458.3231 0.0000 -136458.3231 -136458.3231 0.0000 16523.9378 -239.4568 534946.2959 16523.9378 -239.4568
ENERGY: 40 198.7450 799.5729 2896.9273 0.0000 -162811.4511 16417.9542 221.3030 0.0000 0.0000 -142276.9487 0.0000 -142276.9487 -142276.9487 0.0000 15011.2710 -2135.4689 534946.2959 15011.2710 -2135.4689
ENERGY: 60 130.5283 715.3440 2898.2166 0.0000 -167496.1542 15446.7543 315.2796 0.0000 0.0000 -147990.0314 0.0000 -147990.0314 -147990.0314 0.0000 13793.8843 -3799.3978 534946.2959 13793.8843 -3799.3978
ENERGY: 80 431.2706 765.6302 2904.3787 0.0000 -169937.5269 15121.1526 372.0123 0.0000 0.0000 -150343.0825 0.0000 -150343.0825 -150343.0825 0.0000 13270.3314 -4577.2433 534946.2959 13270.3314 -4577.2433
ENERGY: 100 119.3857 710.0602 2905.2591 0.0000 -171259.7105 14991.7870 387.3613 0.0000 0.0000 -152145.8572 0.0000 -152145.8572 -152145.8572 0.0000 13056.2657 -4908.1717 534946.2959 13056.2657 -4908.1717
TCL: Setting parameter constraintScaling to 5.0
TCL: Minimizing for 100 steps
ETITLE: TS BOND ANGLE DIHED IMPRP ELECT VDW BOUNDARY MISC KINETIC TOTAL TEMP POTENTIAL TOTAL3 TEMPAVG PRESSURE GPRESSURE VOLUME PRESSAVG GPRESSAVG
ENERGY: 100 119.3857 710.0602 2905.2591 0.0000 -171259.7104 14991.7870 193.6807 0.0000 0.0000 -152339.5378 0.0000 -152339.5378 -152339.5378 0.0000 13672.7718 -23021.8179 534946.2959 13672.7718 -23021.8179
ENERGY: 120 108.8856 687.5855 2912.9268 0.0000 -172865.8849 14798.2706 281.1920 0.0000 0.0000 -154077.0244 0.0000 -154077.0244 -154077.0244 0.0000 13218.2539 -4906.0178 534946.2959 13218.2539 -4906.0178
ENERGY: 140 309.4690 708.8760 2913.8025 0.0000 -174236.5507 14731.4875 326.6356 0.0000 0.0000 -155246.2802 0.0000 -155246.2802 -155246.2802 0.0000 12971.5400 -5303.2151 534946.2959 12971.5400 -5303.2151
ENERGY: 160 264.9763 683.0409 2923.1593 0.0000 -176273.8020 14757.2453 382.8319 0.0000 0.0000 -157262.5482 0.0000 -157262.5482 -157262.5482 0.0000 12741.1526 -5741.6737 534946.2959 12741.1526 -5741.6737
ENERGY: 180 269.0661 744.0921 2928.5665 0.0000 -178994.1592 15023.3056 473.2369 0.0000 0.0000 -159555.8919 0.0000 -159555.8919 -159555.8919 0.0000 12521.6691 -6222.7422 534946.2959 12521.6691 -6222.7422
ENERGY: 200 238.7423 694.1154 2941.3524 0.0000 -181555.4351 15586.8608 546.2510 0.0000 0.0000 -161548.1132 0.0000 -161548.1132 -161548.1132 0.0000 12582.6347 -6429.8995 534946.2959 12582.6347 -6429.8995
TCL: Setting parameter constraintScaling to 2.5
TCL: Minimizing for 100 steps
ETITLE: TS BOND ANGLE DIHED IMPRP ELECT VDW BOUNDARY MISC KINETIC TOTAL TEMP POTENTIAL TOTAL3 TEMPAVG PRESSURE GPRESSURE VOLUME PRESSAVG GPRESSAVG
ENERGY: 200 238.7423 694.1154 2941.3524 0.0000 -181555.4351 15586.8608 273.1255 0.0000 0.0000 -161821.2387 0.0000 -161821.2387 -161821.2387 0.0000 13229.5220 -25660.6380 534946.2959 13229.5220 -25660.6380
ENERGY: 220 246.8183 677.9807 2933.0094 0.0000 -182076.9834 15471.4836 337.8304 0.0000 0.0000 -162409.8611 0.0000 -162409.8611 -162409.8611 0.0000 12970.8488 -6096.4987 534946.2959 12970.8488 -6096.4987
ENERGY: 240 140.4260 666.6363 2928.6084 0.0000 -182465.1720 15494.2761 343.7339 0.0000 0.0000 -162891.4912 0.0000 -162891.4912 -162891.4912 0.0000 13034.1853 -6113.9458 534946.2959 13034.1853 -6113.9458
ENERGY: 260 232.6669 702.4119 2922.5490 0.0000 -183747.3742 15757.3702 379.0132 0.0000 0.0000 -163753.3631 0.0000 -163753.3631 -163753.3631 0.0000 13014.2458 -6243.7812 534946.2959 13014.2458 -6243.7812
ENERGY: 280 203.5853 703.9871 2917.7610 0.0000 -185467.5874 16245.6071 457.2570 0.0000 0.0000 -164939.3899 0.0000 -164939.3899 -164939.3899 0.0000 13144.9150 -6348.8445 534946.2959 13144.9150 -6348.8445
ENERGY: 300 196.0648 659.3447 2920.8060 0.0000 -186579.9126 16642.1461 515.4336 0.0000 0.0000 -165646.1173 0.0000 -165646.1173 -165646.1173 0.0000 13239.6759 -6361.8843 534946.2959 13239.6759 -6361.8843
TCL: Setting parameter constraintScaling to 1.25
TCL: Minimizing for 100 steps
ETITLE: TS BOND ANGLE DIHED IMPRP ELECT VDW BOUNDARY MISC KINETIC TOTAL TEMP POTENTIAL TOTAL3 TEMPAVG PRESSURE GPRESSURE VOLUME PRESSAVG GPRESSAVG
ENERGY: 300 196.0648 659.3447 2920.8060 0.0000 -186579.9126 16642.1461 257.7168 0.0000 0.0000 -165903.8342 0.0000 -165903.8342 -165903.8342 0.0000 13702.6283 -26428.4232 534946.2959 13702.6283 -26428.4232
ENERGY: 320 155.1389 660.3905 2909.1561 0.0000 -187280.7048 16814.6066 287.7963 0.0000 0.0000 -166453.6163 0.0000 -166453.6163 -166453.6163 0.0000 13710.2978 -5966.2380 534946.2959 13710.2978 -5966.2380
ENERGY: 340 332.0086 697.2347 2918.2832 0.0000 -188235.2086 17123.3923 328.5019 0.0000 0.0000 -166835.7880 0.0000 -166835.7880 -166835.7880 0.0000 13741.1282 -6051.8843 534946.2959 13741.1282 -6051.8843
ENERGY: 360 142.4527 657.0333 2914.4666 0.0000 -188888.3250 17363.3469 348.8066 0.0000 0.0000 -167462.2188 0.0000 -167462.2188 -167462.2188 0.0000 13845.5121 -5996.7948 534946.2959 13845.5121 -5996.7948
ENERGY: 380 153.8879 643.4454 2898.1630 0.0000 -189235.0284 17460.6122 347.8838 0.0000 0.0000 -167731.0362 0.0000 -167731.0362 -167731.0362 0.0000 13919.5524 -5976.8009 534946.2959 13919.5524 -5976.8009
ENERGY: 400 215.1852 690.9655 2906.5030 0.0000 -190152.4816 17746.4844 370.4220 0.0000 0.0000 -168222.9215 0.0000 -168222.9215 -168222.9215 0.0000 13992.1069 -6012.0467 534946.2959 13992.1069 -6012.0467
TCL: Setting parameter constraintScaling to 0.625
TCL: Minimizing for 100 steps
ETITLE: TS BOND ANGLE DIHED IMPRP ELECT VDW BOUNDARY MISC KINETIC TOTAL TEMP POTENTIAL TOTAL3 TEMPAVG PRESSURE GPRESSURE VOLUME PRESSAVG GPRESSAVG
ENERGY: 400 215.1852 690.9655 2906.5030 0.0000 -190152.4817 17746.4844 185.2110 0.0000 0.0000 -168408.1325 0.0000 -168408.1325 -168408.1325 0.0000 14280.3056 -26689.8092 534946.2959 14280.3056 -26689.8092
ENERGY: 420 167.5183 653.5028 2898.6031 0.0000 -190449.4500 17841.6790 197.1259 0.0000 0.0000 -168691.0210 0.0000 -168691.0210 -168691.0210 0.0000 14321.5347 -5722.3627 534946.2959 14321.5347 -5722.3627
ENERGY: 440 174.8686 669.4079 2895.0616 0.0000 -191446.5502 18208.7728 240.5876 0.0000 0.0000 -169257.8516 0.0000 -169257.8516 -169257.8516 0.0000 14405.7884 -5734.1586 534946.2959 14405.7884 -5734.1586
ENERGY: 460 151.5619 647.9813 2889.4611 0.0000 -192084.4930 18432.5582 263.3155 0.0000 0.0000 -169699.6150 0.0000 -169699.6150 -169699.6150 0.0000 14473.7557 -5745.0907 534946.2959 14473.7557 -5745.0907
ENERGY: 480 168.6223 690.7122 2895.3532 0.0000 -192390.9325 18513.6442 266.4425 0.0000 0.0000 -169856.1582 0.0000 -169856.1582 -169856.1582 0.0000 14504.9423 -5734.2347 534946.2959 14504.9423 -5734.2347
ENERGY: 500 164.0607 703.8348 2896.1643 0.0000 -193107.0852 18797.3820 271.1647 0.0000 0.0000 -170274.4787 0.0000 -170274.4787 -170274.4787 0.0000 14691.7411 -5658.8518 534946.2959 14691.7411 -5658.8518
TCL: Setting parameter constraintScaling to 0.3125
TCL: Minimizing for 100 steps
ETITLE: TS BOND ANGLE DIHED IMPRP ELECT VDW BOUNDARY MISC KINETIC TOTAL TEMP POTENTIAL TOTAL3 TEMPAVG PRESSURE GPRESSURE VOLUME PRESSAVG GPRESSAVG
ENERGY: 500 164.0607 703.8348 2896.1643 0.0000 -193107.0852 18797.3820 135.5824 0.0000 0.0000 -170410.0611 0.0000 -170410.0611 -170410.0611 0.0000 14876.5080 -26793.7865 534946.2959 14876.5080 -26793.7865
ENERGY: 520 152.5849 643.7588 2884.3055 0.0000 -193436.2683 18912.7837 144.2392 0.0000 0.0000 -170698.5963 0.0000 -170698.5963 -170698.5963 0.0000 14868.5692 -5492.0831 534946.2959 14868.5692 -5492.0831
ENERGY: 540 161.2948 674.4532 2881.8894 0.0000 -194044.9253 19171.3798 167.0131 0.0000 0.0000 -170988.8949 0.0000 -170988.8949 -170988.8949 0.0000 14950.8311 -5485.5126 534946.2959 14950.8311 -5485.5126
ENERGY: 560 165.5944 667.0017 2878.8095 0.0000 -194285.8836 19207.6251 169.0838 0.0000 0.0000 -171197.7690 0.0000 -171197.7690 -171197.7690 0.0000 14965.1963 -5490.6792 534946.2959 14965.1963 -5490.6792
ENERGY: 580 174.3880 713.3785 2880.1898 0.0000 -194705.8820 19363.1940 176.0906 0.0000 0.0000 -171398.6410 0.0000 -171398.6410 -171398.6410 0.0000 15067.9018 -5455.5600 534946.2959 15067.9018 -5455.5600
ENERGY: 600 184.6039 674.1068 2879.8802 0.0000 -196035.7777 19920.9982 202.6844 0.0000 0.0000 -172173.5042 0.0000 -172173.5042 -172173.5042 0.0000 15290.8223 -5370.9671 534946.2959 15290.8223 -5370.9671
TCL: Setting parameter constraintScaling to 0.15625
TCL: Minimizing for 100 steps
ETITLE: TS BOND ANGLE DIHED IMPRP ELECT VDW BOUNDARY MISC KINETIC TOTAL TEMP POTENTIAL TOTAL3 TEMPAVG PRESSURE GPRESSURE VOLUME PRESSAVG GPRESSAVG
ENERGY: 600 184.6039 674.1068 2879.8802 0.0000 -196035.7777 19920.9982 101.3422 0.0000 0.0000 -172274.8464 0.0000 -172274.8464 -172274.8464 0.0000 15408.1671 -26947.0326 534946.2959 15408.1671 -26947.0326
ENERGY: 620 163.2851 652.7257 2866.1195 0.0000 -196369.1695 20021.6343 108.5337 0.0000 0.0000 -172556.8713 0.0000 -172556.8713 -172556.8713 0.0000 15423.8788 -5277.1889 534946.2959 15423.8788 -5277.1889
ENERGY: 640 176.6460 662.2212 2863.9941 0.0000 -196924.6670 20247.0459 118.4273 0.0000 0.0000 -172856.3325 0.0000 -172856.3325 -172856.3325 0.0000 15510.0936 -5254.8226 534946.2959 15510.0936 -5254.8226
ENERGY: 660 200.5109 678.1861 2862.3612 0.0000 -197855.1822 20584.2423 131.9987 0.0000 0.0000 -173397.8830 0.0000 -173397.8830 -173397.8830 0.0000 15657.4884 -5216.0442 534946.2959 15657.4884 -5216.0442
ENERGY: 680 165.6087 657.7660 2858.2471 0.0000 -198371.0054 20780.9658 138.1176 0.0000 0.0000 -173770.3002 0.0000 -173770.3002 -173770.3002 0.0000 15772.1825 -5167.0740 534946.2959 15772.1825 -5167.0740
ENERGY: 700 163.1268 664.0412 2854.0923 0.0000 -198544.8375 20855.9285 139.5086 0.0000 0.0000 -173868.1400 0.0000 -173868.1400 -173868.1400 0.0000 15782.1585 -5163.6802 534946.2959 15782.1585 -5163.6802
TCL: Setting parameter constraintScaling to 0.078125
TCL: Minimizing for 100 steps
ETITLE: TS BOND ANGLE DIHED IMPRP ELECT VDW BOUNDARY MISC KINETIC TOTAL TEMP POTENTIAL TOTAL3 TEMPAVG PRESSURE GPRESSURE VOLUME PRESSAVG GPRESSAVG
ENERGY: 700 163.1268 664.0412 2854.0923 0.0000 -198544.8375 20855.9285 69.7543 0.0000 0.0000 -173937.8943 0.0000 -173937.8943 -173937.8943 0.0000 15852.7433 -27090.0783 534946.2959 15852.7433 -27090.0783
ENERGY: 720 159.1012 659.1767 2853.4844 0.0000 -198685.6939 20893.5015 71.0454 0.0000 0.0000 -174049.3846 0.0000 -174049.3846 -174049.3846 0.0000 15887.7124 -5083.5165 534946.2959 15887.7124 -5083.5165
ENERGY: 740 164.3119 665.2604 2846.1710 0.0000 -199383.4272 21144.8518 77.5165 0.0000 0.0000 -174485.3156 0.0000 -174485.3156 -174485.3156 0.0000 15996.4805 -5053.2229 534946.2959 15996.4805 -5053.2229
ENERGY: 760 289.7324 715.6733 2846.7129 0.0000 -199649.4821 21259.5118 79.0495 0.0000 0.0000 -174458.8022 0.0000 -174458.8022 -174458.8022 0.0000 16014.3669 -5059.2861 534946.2959 16014.3669 -5059.2861
ENERGY: 780 182.9940 681.8255 2842.1754 0.0000 -199944.9410 21364.3808 81.4765 0.0000 0.0000 -174792.0888 0.0000 -174792.0888 -174792.0888 0.0000 16111.3887 -5019.0419 534946.2959 16111.3887 -5019.0419
ENERGY: 800 163.8710 667.2217 2836.8645 0.0000 -200836.3828 21706.2000 89.3582 0.0000 0.0000 -175372.8674 0.0000 -175372.8674 -175372.8674 0.0000 16254.6693 -4961.7938 534946.2959 16254.6693 -4961.7938
TCL: Setting parameter constraintScaling to 0.0390625
TCL: Minimizing for 100 steps
ETITLE: TS BOND ANGLE DIHED IMPRP ELECT VDW BOUNDARY MISC KINETIC TOTAL TEMP POTENTIAL TOTAL3 TEMPAVG PRESSURE GPRESSURE VOLUME PRESSAVG GPRESSAVG
ENERGY: 800 163.8710 667.2217 2836.8645 0.0000 -200836.3828 21706.2000 44.6791 0.0000 0.0000 -175417.5465 0.0000 -175417.5465 -175417.5465 0.0000 16295.8820 -27192.9506 534946.2959 16295.8820 -27192.9506
ENERGY: 820 188.0306 667.5246 2834.2291 0.0000 -201151.5866 21823.2144 46.4642 0.0000 0.0000 -175592.1236 0.0000 -175592.1236 -175592.1236 0.0000 16355.9385 -4904.4705 534946.2959 16355.9385 -4904.4705
ENERGY: 840 178.2215 667.5372 2833.7438 0.0000 -201379.2247 21901.5256 47.7110 0.0000 0.0000 -175750.4856 0.0000 -175750.4856 -175750.4856 0.0000 16399.1242 -4881.3777 534946.2959 16399.1242 -4881.3777
ENERGY: 860 165.7929 674.6025 2831.9932 0.0000 -201691.6427 22028.5463 49.2333 0.0000 0.0000 -175941.4744 0.0000 -175941.4744 -175941.4744 0.0000 16446.1257 -4873.9491 534946.2959 16446.1257 -4873.9491
ENERGY: 880 168.4168 658.4784 2828.7193 0.0000 -201800.4408 22068.8646 49.5395 0.0000 0.0000 -176026.4221 0.0000 -176026.4221 -176026.4221 0.0000 16480.0428 -4858.1191 534946.2959 16480.0428 -4858.1191
ENERGY: 900 172.4268 664.4172 2830.6685 0.0000 -201911.4033 22112.8358 50.0311 0.0000 0.0000 -176081.0238 0.0000 -176081.0238 -176081.0238 0.0000 16493.2795 -4851.2820 534946.2959 16493.2795 -4851.2820
TCL: Setting parameter constraintScaling to 0.01953125
TCL: Minimizing for 100 steps
ETITLE: TS BOND ANGLE DIHED IMPRP ELECT VDW BOUNDARY MISC KINETIC TOTAL TEMP POTENTIAL TOTAL3 TEMPAVG PRESSURE GPRESSURE VOLUME PRESSAVG GPRESSAVG
ENERGY: 900 172.4268 664.4172 2830.6685 0.0000 -201911.4033 22112.8358 25.0156 0.0000 0.0000 -176106.0394 0.0000 -176106.0394 -176106.0394 0.0000 16515.3592 -27236.4238 534946.2959 16515.3592 -27236.4238
ENERGY: 920 200.7423 670.1911 2828.1450 0.0000 -202040.6331 22154.1133 25.4073 0.0000 0.0000 -176162.0340 0.0000 -176162.0340 -176162.0340 0.0000 16547.4062 -4819.8400 534946.2959 16547.4062 -4819.8400
ENERGY: 940 227.7722 667.5670 2826.1625 0.0000 -202436.9334 22318.1899 26.5460 0.0000 0.0000 -176370.6958 0.0000 -176370.6958 -176370.6958 0.0000 16592.0446 -4812.2332 534946.2959 16592.0446 -4812.2332
ENERGY: 960 161.9157 656.2604 2822.0529 0.0000 -202936.1479 22519.1244 27.8957 0.0000 0.0000 -176748.8989 0.0000 -176748.8989 -176748.8989 0.0000 16715.0869 -4747.0685 534946.2959 16715.0869 -4747.0685
ENERGY: 980 164.9016 663.3098 2821.3260 0.0000 -203052.9201 22562.4095 28.1810 0.0000 0.0000 -176812.7923 0.0000 -176812.7923 -176812.7923 0.0000 16743.8427 -4735.6963 534946.2959 16743.8427 -4735.6963
ENERGY: 1000 188.9868 684.8295 2822.6356 0.0000 -203425.2569 22722.9552 29.1038 0.0000 0.0000 -176976.7460 0.0000 -176976.7460 -176976.7460 0.0000 16803.2718 -4716.4375 534946.2959 16803.2718 -4716.4375
TCL: Setting parameter constraintScaling to 0
TCL: Minimizing for 5000 steps
ETITLE: TS BOND ANGLE DIHED IMPRP ELECT VDW BOUNDARY MISC KINETIC TOTAL TEMP POTENTIAL TOTAL3 TEMPAVG PRESSURE GPRESSURE VOLUME PRESSAVG GPRESSAVG
ENERGY: 1000 188.9868 684.8295 2822.6356 0.0000 -203425.2569 22722.9552 0.0000 0.0000 0.0000 -177005.8498 0.0000 -177005.8498 -177005.8498 0.0000 16827.6192 -27279.8806 534946.2959 16827.6192 -27279.8806
ENERGY: 2000 181.5959 673.6165 2802.3538 0.0000 -214128.3906 27546.3344 0.0000 0.0000 0.0000 -182924.4899 0.0000 -182924.4899 -182924.4899 0.0000 19415.8634 -3327.6590 534946.2959 19415.8634 -3327.6590
ENERGY: 3000 189.3898 677.0269 2793.4812 0.0000 -217221.1314 28765.6416 0.0000 0.0000 0.0000 -184795.5918 0.0000 -184795.5918 -184795.5918 0.0000 20031.6882 -3011.2646 534946.2959 20031.6882 -3011.2646
ENERGY: 4000 166.1805 666.4085 2788.4928 0.0000 -218470.6431 29281.2366 0.0000 0.0000 0.0000 -185568.3248 0.0000 -185568.3248 -185568.3248 0.0000 20323.7495 -2832.8835 534946.2959 20323.7495 -2832.8835
ENERGY: 5000 166.1051 665.2444 2783.2800 0.0000 -219224.5246 29562.4697 0.0000 0.0000 0.0000 -186047.4253 0.0000 -186047.4253 -186047.4253 0.0000 20453.6003 -2786.0120 534946.2959 20453.6003 -2786.0120
ENERGY: 6000 166.1041 664.4170 2783.0196 0.0000 -219698.1924 29723.4514 0.0000 0.0000 0.0000 -186361.2002 0.0000 -186361.2002 -186361.2002 0.0000 20537.9605 -2752.1505 534946.2959 20537.9605 -2752.1505
