Info: SIMULATION PARAMETERS:
Info: TIMESTEP               1
Info: NUMBER OF STEPS        0
Info: STEPS PER CYCLE        10
Info: PERIODIC CELL BASIS 1  72.449 0 0
Info: PERIODIC CELL BASIS 2  0 93.247 0
Info: PERIODIC CELL BASIS 3  0 0 79.185
Info: PERIODIC CELL CENTER   -0.248 -0.156 -0.047
Info: WRAPPING WATERS AROUND PERIODIC BOUNDARIES ON OUTPUT.
Info: WRAPPING ALL CLUSTERS AROUND PERIODIC BOUNDARIES ON OUTPUT.
Info: FIRST LDB TIMESTEP     50
Info: LAST LDB TIMESTEP     -1
Info: HOM BACKGROUND SCALING 1
Info: PME BACKGROUND SCALING 1
Info: MIN ATOMS PER PATCH    40
Info: VELOCITY FILE          ../replicas/rep62/equilibration/eq1.vel
Info: CENTER OF MASS MOVING INITIALLY? NO
Info: DIELECTRIC             1
Info: EXCLUDE                SCALED ONE-FOUR
Info: 1-4 ELECTROSTATICS SCALED BY 0.833333
Info: MODIFIED 1-4 VDW PARAMETERS WILL BE USED
Info: DCD FILENAME           ../replicas/rep62/equilibration/eq2.dcd
Info: DCD FREQUENCY          5000
Info: DCD FIRST STEP         5000
Info: DCD FILE WILL CONTAIN UNIT CELL DATA
Info: XST FILENAME           ../replicas/rep62/equilibration/eq2.xst
Info: XST FREQUENCY          5000
Info: NO VELOCITY DCD OUTPUT
Info: NO FORCE DCD OUTPUT
Info: OUTPUT FILENAME        ../replicas/rep62/equilibration/eq2
Info: RESTART FILENAME       ../replicas/rep62/equilibration/eq2.restart
Info: RESTART FREQUENCY      5000
Info: BINARY RESTART FILES WILL BE USED
Info: SWITCHING ACTIVE
Info: SWITCHING ON           10
Info: SWITCHING OFF          12
Info: PAIRLIST DISTANCE      13.5
Info: PAIRLIST SHRINK RATE   0.01
Info: PAIRLIST GROW RATE     0.01
Info: PAIRLIST TRIGGER       0.3
Info: PAIRLISTS PER CYCLE    2
Info: PAIRLISTS ENABLED
Info: MARGIN                 0.48
Info: HYDROGEN GROUP CUTOFF  2.5
Info: PATCH DIMENSION        16.48
Info: ENERGY OUTPUT STEPS    500
Info: CROSSTERM ENERGY INCLUDED IN DIHEDRAL
Info: TIMING OUTPUT STEPS    5000
Info: PRESSURE OUTPUT STEPS  500
Info: HARMONIC CONSTRAINTS ACTIVE
Info: HARMONIC CONS EXP      2
Info: HARMONIC CONS SCALING  10
Info: LANGEVIN DYNAMICS ACTIVE
Info: LANGEVIN TEMPERATURE   300
Info: LANGEVIN USING BBK INTEGRATOR
Info: LANGEVIN DAMPING COEFFICIENT IS 5 INVERSE PS
Info: LANGEVIN DYNAMICS NOT APPLIED TO HYDROGENS
Info: BERENDSEN PRESSURE COUPLING ACTIVE
Info:     TARGET PRESSURE IS 1 BAR
Info:     COMPRESSIBILITY ESTIMATE IS 4.57e-05 BAR^(-1)
Info:     RELAXATION TIME IS 100 FS
Info:     APPLIED EVERY 2 STEPS
Info:     PRESSURE CONTROL IS GROUP-BASED
Info:       CELL FLUCTUATION IS ISOTROPIC
Info: PARTICLE MESH EWALD (PME) ACTIVE
Info: PME TOLERANCE               1e-06
Info: PME EWALD COEFFICIENT       0.257952
Info: PME INTERPOLATION ORDER     4
Info: PME GRID DIMENSIONS         80 96 80
Info: PME MAXIMUM GRID SPACING    1
Info: FULL ELECTROSTATIC EVALUATION FREQUENCY      2
Info: USING VERLET I (r-RESPA) MTS SCHEME.
Info: C1 SPLITTING OF LONG RANGE ELECTROSTATICS
Info: PLACING ATOMS IN PATCHES BY HYDROGEN GROUPS
Info: RIGID BONDS TO HYDROGEN : WATER
Info:         ERROR TOLERANCE : 1e-05
Info:          MAX ITERATIONS : 100
Info: RIGID WATER USING SETTLE ALGORITHM
Info: RANDOM NUMBER SEED     1503693787
Info: USE HYDROGEN BONDS?    NO
Info: Using AMBER format force field!
Info: AMBER PARM FILE        ../build/complex.top
Info: COORDINATE PDB         ../replicas/rep62/equilibration/eq1.coor
Info: Exclusions in PARM file will be ignored!
Info: SCNB (VDW SCALING)     2
Info: USING ARITHMETIC MEAN TO COMBINE L-J SIGMA PARAMETERS
Info: SUMMARY OF PARAMETERS:
Info: 71 BONDS
Info: 145 ANGLES
Info:   145 HARMONIC
Info:   0 COSINE-BASED
Info: 76 DIHEDRAL
Info: 0 IMPROPER
Info: 0 CROSSTERM
Info: 0 VDW
Info: 190 VDW_PAIRS
Info: 0 NBTHOLE_PAIRS
Info: STRUCTURE SUMMARY:
Info: 49394 ATOMS
Info: 49448 BONDS
Info: 8698 ANGLES
Info: 18780 DIHEDRALS
Info: 0 IMPROPERS
Info: 0 CROSSTERMS
Info: 0 EXCLUSIONS
Info: 2336 CONSTRAINTS
Info: 44667 RIGID BONDS
Info: 103515 DEGREES OF FREEDOM
Info: 17225 HYDROGEN GROUPS
Info: 4 ATOMS IN LARGEST HYDROGEN GROUP
Info: 17225 MIGRATION GROUPS
Info: 4 ATOMS IN LARGEST MIGRATION GROUP
Info: TOTAL MASS = 301478 amu
Info: TOTAL CHARGE = 1.00115e-05 e
Info: MASS DENSITY = 0.935846 g/cm^3
Info: ATOM DENSITY = 0.0923345 atoms/A^3
Info: ADDED 70656 IMPLICIT EXCLUSIONS
Info: NONBONDED TABLE R-SQUARED SPACING: 0.0625
Info: NONBONDED TABLE SIZE: 769 POINTS
Info: REMOVING COM VELOCITY -0.0110984 -0.0161954 0.0253807
TCL: Running for 5000 steps
ETITLE: TS BOND ANGLE DIHED IMPRP ELECT VDW BOUNDARY MISC KINETIC TOTAL TEMP POTENTIAL TOTAL3 TEMPAVG PRESSURE GPRESSURE VOLUME PRESSAVG GPRESSAVG
ENERGY: 0 403.7968 1224.7635 2915.4484 0.0000 -212829.5483 29685.3220 0.0000 0.0000 10015.9021 -168584.3157 97.3817 -178600.2177 -168574.5914 97.3817 -2387.1607 -2488.1204 534946.2959 -2387.1607 -2488.1204
ENERGY: 1000 1259.5826 1932.6707 3088.1954 0.0000 -193345.0547 26350.4310 763.9814 0.0000 24202.2883 -135747.9054 235.3117 -159950.1937 -135711.6862 219.0244 -67.4428 -37.2700 522303.0777 -16.8965 -17.1954
ENERGY: 2000 1393.0158 2144.2409 3138.8706 0.0000 -184241.8626 23575.4258 818.2722 0.0000 27637.0141 -125535.0233 268.7065 -153172.0374 -125499.3459 263.0741 -42.5375 -10.8192 515734.1594 -25.5209 -25.2247
ENERGY: 3000 1517.7575 2270.7372 3149.1820 0.0000 -179073.8839 21392.9501 805.0227 0.0000 29520.0746 -120418.1597 287.0150 -149938.2344 -120375.1441 283.6122 -15.8573 1.6487 511168.0198 -10.4959 -10.3508
ENERGY: 4000 1591.1194 2210.3830 3131.3986 0.0000 -177019.4171 20815.7728 811.0836 0.0000 30205.7946 -118253.8650 293.6820 -148459.6596 -118202.4284 292.4288 -65.9304 -28.2763 506825.3675 -20.1418 -19.9288
ENERGY: 5000 1537.7238 2229.0458 3133.3891 0.0000 -176086.8042 20592.1069 778.2820 0.0000 30371.3236 -117444.9329 295.2914 -147816.2565 -117392.2173 295.5872 30.0458 -5.7003 505104.0641 -8.2406 -7.9901
TCL: Setting parameter constraintScaling to 5.0
TCL: Running for 5000 steps
ETITLE: TS BOND ANGLE DIHED IMPRP ELECT VDW BOUNDARY MISC KINETIC TOTAL TEMP POTENTIAL TOTAL3 TEMPAVG PRESSURE GPRESSURE VOLUME PRESSAVG GPRESSAVG
ENERGY: 5000 1537.7238 2229.0458 3133.3891 0.0000 -176086.8042 20592.1069 389.1410 0.0000 30369.2644 -117836.1331 295.2714 -148205.3976 -117792.5436 295.2714 34.8598 2.0250 505104.0641 34.8598 2.0250
ENERGY: 6000 1608.1747 2249.3461 3162.2174 0.0000 -175503.1091 20116.2812 642.7929 0.0000 30671.1517 -117053.1451 298.2066 -147724.2968 -117003.6697 298.5713 38.1304 35.9517 504222.3675 -4.9374 -4.9186
ENERGY: 7000 1587.2101 2287.6714 3143.9323 0.0000 -175464.0517 20230.0807 649.1247 0.0000 30806.4570 -116759.5755 299.5221 -147566.0325 -116710.4288 298.9105 -83.2179 30.9737 505422.5082 17.6710 17.0217
ENERGY: 8000 1597.2004 2371.9848 3167.4885 0.0000 -175847.2841 20269.5331 631.7595 0.0000 30961.2582 -116848.0595 301.0272 -147809.3178 -116798.8867 299.9981 -31.4762 4.6465 501745.2346 -16.7766 -16.8840
ENERGY: 9000 1642.2100 2319.7804 3155.5580 0.0000 -175890.5045 20111.5900 654.8863 0.0000 30920.2998 -117086.1799 300.6289 -148006.4797 -117052.1993 299.2544 -28.9702 17.1066 502433.7611 6.1835 6.3171
ENERGY: 10000 1612.8031 2366.8736 3189.6788 0.0000 -175641.2839 20104.7071 657.4872 0.0000 31017.0706 -116692.6635 301.5698 -147709.7341 -116645.5112 300.9161 -129.1351 -22.1226 503352.3689 -3.4664 -3.1052
TCL: Setting parameter constraintScaling to 2.5
TCL: Running for 5000 steps
ETITLE: TS BOND ANGLE DIHED IMPRP ELECT VDW BOUNDARY MISC KINETIC TOTAL TEMP POTENTIAL TOTAL3 TEMPAVG PRESSURE GPRESSURE VOLUME PRESSAVG GPRESSAVG
ENERGY: 10000 1612.8031 2366.8736 3189.6788 0.0000 -175641.2839 20104.7071 328.7436 0.0000 31015.0324 -117023.4452 301.5500 -148038.4777 -116977.3593 301.5500 -188.0596 -82.2963 503352.3689 -188.0596 -82.2963
ENERGY: 11000 1597.5960 2337.1326 3153.9833 0.0000 -175478.0100 20142.2887 535.4482 0.0000 30910.1568 -116801.4044 300.5303 -147711.5613 -116757.3924 300.2206 -23.1696 23.2684 501465.0437 -4.0938 -3.8544
ENERGY: 12000 1657.0834 2375.8512 3165.7710 0.0000 -175571.7183 19833.4703 503.3847 0.0000 31159.7920 -116876.3658 302.9575 -148036.1577 -116825.1277 301.0548 -48.3018 -48.4474 500766.5792 -0.3713 -0.0966
ENERGY: 13000 1646.3548 2294.5814 3167.0791 0.0000 -175819.5939 20275.3898 481.4426 0.0000 30879.4692 -117075.2769 300.2320 -147954.7462 -117029.0534 299.0407 21.8158 -10.4626 499557.8815 -10.1018 -10.3117
ENERGY: 14000 1677.0204 2314.6846 3150.8453 0.0000 -175681.8917 20317.4098 523.7558 0.0000 30853.0263 -116845.1495 299.9749 -147698.1758 -116802.9742 299.8571 -138.4160 -0.6351 500653.2899 1.2401 1.8260
ENERGY: 15000 1682.0104 2326.6716 3175.7299 0.0000 -175776.1707 20317.7259 510.5879 0.0000 30705.4026 -117058.0425 298.5396 -147763.4451 -117025.4405 299.7513 -70.9528 -61.7759 500652.6351 0.7432 0.6661
TCL: Setting parameter constraintScaling to 1.25
TCL: Running for 5000 steps
ETITLE: TS BOND ANGLE DIHED IMPRP ELECT VDW BOUNDARY MISC KINETIC TOTAL TEMP POTENTIAL TOTAL3 TEMPAVG PRESSURE GPRESSURE VOLUME PRESSAVG GPRESSAVG
ENERGY: 15000 1682.0104 2326.6716 3175.7299 0.0000 -175776.1707 20317.7259 255.2939 0.0000 30703.3820 -117315.3570 298.5199 -148018.7390 -117272.3228 298.5199 -126.1305 -108.4768 500652.6351 -126.1305 -108.4768
ENERGY: 16000 1649.9365 2336.0533 3168.1098 0.0000 -174944.7502 19786.8263 390.3682 0.0000 30679.1877 -116934.2685 298.2847 -147613.4562 -116889.4028 299.2820 -27.7113 -7.6512 501102.5972 8.9733 9.4932
ENERGY: 17000 1665.0962 2383.4416 3207.0211 0.0000 -175707.8043 20219.1880 397.8261 0.0000 30982.7208 -116852.5105 301.2358 -147835.2313 -116801.6673 300.1030 -67.7050 7.2539 499620.1250 -5.1139 -5.7836
ENERGY: 18000 1649.2428 2319.6795 3161.6777 0.0000 -175146.4189 19817.7492 397.6545 0.0000 30725.1859 -117075.2292 298.7319 -147800.4151 -117032.4344 299.3746 -49.3130 -69.0382 500255.3536 -0.6162 -0.5386
ENERGY: 19000 1604.2923 2369.1977 3174.2193 0.0000 -175623.3025 20089.6399 396.0642 0.0000 30811.5406 -117178.3485 299.5715 -147989.8891 -117128.4050 299.7339 -68.8654 13.4673 499733.5389 0.1457 0.5804
ENERGY: 20000 1636.0084 2313.0803 3197.3510 0.0000 -175776.4806 20122.0421 427.4268 0.0000 30860.9353 -117219.6366 300.0518 -148080.5720 -117178.9668 299.0750 -83.8922 15.6689 498163.5167 -8.2288 -8.2829
TCL: Setting parameter constraintScaling to 0.625
TCL: Running for 5000 steps
ETITLE: TS BOND ANGLE DIHED IMPRP ELECT VDW BOUNDARY MISC KINETIC TOTAL TEMP POTENTIAL TOTAL3 TEMPAVG PRESSURE GPRESSURE VOLUME PRESSAVG GPRESSAVG
ENERGY: 20000 1636.0084 2313.0803 3197.3510 0.0000 -175776.4806 20122.0421 213.7134 0.0000 30858.9010 -117435.3843 300.0320 -148294.2854 -117389.7964 300.0320 -76.6641 24.4065 498163.5167 -76.6641 24.4065
ENERGY: 21000 1621.6307 2289.7558 3197.2270 0.0000 -175454.0410 19925.2451 311.3642 0.0000 30822.7458 -117286.0725 299.6805 -148108.8183 -117244.0233 298.8385 23.6195 -1.8267 499063.3528 4.7791 5.1957
ENERGY: 22000 1600.7930 2377.8580 3170.0298 0.0000 -175884.7419 20154.9446 310.7537 0.0000 30831.9617 -117438.4012 299.7701 -148270.3629 -117383.1103 299.2438 41.0435 50.1617 498620.9731 1.5681 1.8858
ENERGY: 23000 1661.2738 2401.3440 3215.8865 0.0000 -176000.4204 20044.4902 309.6705 0.0000 30740.1147 -117627.6407 298.8771 -148367.7554 -117578.7397 298.3417 -5.0642 -10.3407 498475.0403 -4.8935 -4.9655
ENERGY: 24000 1605.4352 2426.7207 3181.2939 0.0000 -175838.9817 20100.5239 308.7013 0.0000 30856.6870 -117359.6198 300.0105 -148216.3068 -117312.5323 298.8380 76.3188 79.7743 498723.9322 5.1628 5.1152
ENERGY: 25000 1652.5366 2363.0820 3163.4094 0.0000 -175613.3937 19912.3084 322.9400 0.0000 30754.2857 -117444.8316 299.0148 -148199.1173 -117395.1265 298.9213 -146.1253 -40.3522 497051.0023 -11.4306 -11.6075
TCL: Setting parameter constraintScaling to 0.3125
TCL: Running for 5000 steps
ETITLE: TS BOND ANGLE DIHED IMPRP ELECT VDW BOUNDARY MISC KINETIC TOTAL TEMP POTENTIAL TOTAL3 TEMPAVG PRESSURE GPRESSURE VOLUME PRESSAVG GPRESSAVG
ENERGY: 25000 1652.5366 2363.0820 3163.4094 0.0000 -175613.3937 19912.3084 161.4700 0.0000 30752.2148 -117608.3725 298.9947 -148360.5873 -117565.5732 298.9947 -176.7586 -79.5899 497051.0023 -176.7586 -79.5899
ENERGY: 26000 1725.1917 2421.9408 3206.9844 0.0000 -175445.7270 19845.7616 245.0112 0.0000 31078.8531 -116921.9841 302.1705 -148000.8372 -116884.9435 300.4536 -19.0538 -38.2802 497923.5706 -6.7578 -6.4601
ENERGY: 27000 1691.8841 2334.7131 3201.5096 0.0000 -175239.5884 19717.9830 248.3599 0.0000 31033.5753 -117011.5634 301.7303 -148045.1388 -116977.6183 300.4187 -105.0537 -30.8166 497936.7988 -1.6128 -1.4277
ENERGY: 28000 1693.2721 2404.8932 3236.8812 0.0000 -175797.8850 20128.7747 254.0946 0.0000 30876.3635 -117203.6057 300.2018 -148079.9692 -117161.7440 300.5515 -40.2909 -2.6282 498194.7749 2.1698 1.8285
ENERGY: 29000 1634.2456 2426.6746 3231.8832 0.0000 -175582.8617 19976.7221 245.5063 0.0000 31041.3213 -117026.5086 301.8056 -148067.8299 -116973.3400 299.9878 -36.3475 8.6881 497005.2456 -1.1615 -1.8201
ENERGY: 30000 1661.1114 2368.3766 3203.7215 0.0000 -176132.7608 20312.7722 249.2000 0.0000 30856.9913 -117480.5879 300.0134 -148337.5792 -117437.6212 299.9452 4.8974 40.1759 497618.4418 1.2974 0.8951
TCL: Setting parameter constraintScaling to 0.15625
TCL: Running for 5000 steps
ETITLE: TS BOND ANGLE DIHED IMPRP ELECT VDW BOUNDARY MISC KINETIC TOTAL TEMP POTENTIAL TOTAL3 TEMPAVG PRESSURE GPRESSURE VOLUME PRESSAVG GPRESSAVG
ENERGY: 30000 1661.1114 2368.3766 3203.7215 0.0000 -176132.7608 20312.7722 124.6000 0.0000 30854.9463 -117607.2328 299.9935 -148462.1791 -117564.3488 299.9935 0.2942 28.0199 497618.4418 0.2942 28.0199
ENERGY: 31000 1626.2214 2368.7030 3220.7711 0.0000 -175542.4991 19901.9954 199.3342 0.0000 30855.2712 -117370.2027 299.9967 -148225.4740 -117342.1332 299.6670 -53.0246 22.2920 496507.3825 -14.3743 -14.1053
ENERGY: 32000 1666.9899 2460.9732 3204.9367 0.0000 -175743.1579 19952.1194 196.0690 0.0000 30746.1058 -117515.9640 298.9353 -148262.0698 -117473.0132 299.5588 67.0657 -55.9859 496625.2151 -3.7336 -3.8906
ENERGY: 33000 1646.9699 2458.9979 3208.0580 0.0000 -175679.9570 19983.5160 212.1555 0.0000 30942.3295 -117227.9304 300.8431 -148170.2599 -117186.2492 301.3062 -63.0988 -66.7807 496431.3456 11.7919 11.9434
ENERGY: 34000 1626.3829 2408.3636 3220.3753 0.0000 -175765.4817 19991.5174 204.8875 0.0000 30778.3562 -117535.5986 299.2489 -148313.9548 -117496.5213 299.8219 112.9224 48.3035 497396.3367 3.0450 3.2031
ENERGY: 35000 1670.6975 2356.1283 3228.2176 0.0000 -176092.8972 20194.4215 226.0295 0.0000 30895.0723 -117522.3305 300.3837 -148417.4029 -117476.3006 299.8189 -92.1160 -20.3510 497797.3011 6.1601 6.5635
TCL: Setting parameter constraintScaling to 0.078125
TCL: Running for 5000 steps
ETITLE: TS BOND ANGLE DIHED IMPRP ELECT VDW BOUNDARY MISC KINETIC TOTAL TEMP POTENTIAL TOTAL3 TEMPAVG PRESSURE GPRESSURE VOLUME PRESSAVG GPRESSAVG
ENERGY: 35000 1670.6975 2356.1283 3228.2176 0.0000 -176092.8972 20194.4215 113.0148 0.0000 30893.0313 -117637.3863 300.3638 -148530.4176 -117591.7824 300.3638 -96.0531 -16.2520 497797.3011 -96.0531 -16.2520
ENERGY: 36000 1666.6604 2364.1174 3230.0270 0.0000 -175746.6186 20023.7687 157.6841 0.0000 30956.0023 -117348.3585 300.9761 -148304.3608 -117302.2036 299.5287 -69.7421 -51.2525 496984.9334 -3.5345 -3.5488
ENERGY: 37000 1664.2707 2389.9510 3246.1835 0.0000 -176129.0776 20148.6527 170.1876 0.0000 30796.6805 -117713.1516 299.4270 -148509.8321 -117663.5623 298.9518 50.0037 43.9707 496697.2517 -2.7076 -2.8698
ENERGY: 38000 1588.3138 2368.2809 3244.5728 0.0000 -175716.3161 20014.8993 167.8524 0.0000 30837.8117 -117494.5854 299.8269 -148332.3970 -117448.6042 299.3311 28.1371 -43.8457 497091.4310 0.8987 0.3737
ENERGY: 39000 1610.7313 2435.5776 3206.6714 0.0000 -175684.4452 19890.8251 160.3306 0.0000 30596.3154 -117783.9938 297.4789 -148380.3092 -117734.0803 298.5041 27.9999 17.1065 496625.9489 -7.0128 -6.7984
ENERGY: 40000 1645.9435 2376.8798 3254.3126 0.0000 -175834.7944 20043.5472 161.4409 0.0000 30536.9315 -117815.7388 296.9016 -148352.6702 -117771.8697 298.9394 -15.1890 30.6590 497110.9847 -12.2417 -12.7105
TCL: Setting parameter constraintScaling to 0.0390625
TCL: Running for 5000 steps
ETITLE: TS BOND ANGLE DIHED IMPRP ELECT VDW BOUNDARY MISC KINETIC TOTAL TEMP POTENTIAL TOTAL3 TEMPAVG PRESSURE GPRESSURE VOLUME PRESSAVG GPRESSAVG
ENERGY: 40000 1645.9435 2376.8798 3254.3126 0.0000 -175834.7944 20043.5472 80.7205 0.0000 30534.9027 -117898.4880 296.8818 -148433.3907 -117857.0092 296.8818 -25.2741 13.5052 497110.9847 -25.2741 13.5052
ENERGY: 41000 1634.4712 2468.8157 3223.9071 0.0000 -176469.2158 20380.9762 115.8209 0.0000 30674.3803 -117970.8443 298.2379 -148645.2246 -117917.7770 298.7375 3.7153 39.2849 497511.1931 -3.9891 -3.8200
ENERGY: 42000 1644.7263 2427.6739 3181.0944 0.0000 -175953.1619 19838.7481 118.7606 0.0000 30871.0085 -117871.1502 300.1497 -148742.1587 -117826.3252 298.0663 -100.5253 -81.3933 495789.3465 -3.4167 -3.6291
ENERGY: 43000 1649.8454 2430.2976 3211.0715 0.0000 -176223.1261 20175.4571 121.5680 0.0000 30539.1194 -118095.7672 296.9228 -148634.8865 -118055.7044 299.4336 -129.9676 -97.6954 497202.9397 9.8970 9.3791
ENERGY: 44000 1639.9352 2354.9743 3197.5522 0.0000 -176194.7697 20073.1733 121.7351 0.0000 30712.9930 -118094.4066 298.6134 -148807.3996 -118055.5776 298.5422 -91.1848 34.6111 495550.5998 -6.2709 -6.0805
ENERGY: 45000 1633.5291 2379.8801 3206.4261 0.0000 -176386.2247 20102.0785 126.2349 0.0000 30891.4797 -118046.5964 300.3487 -148938.0760 -118000.4408 299.0530 109.8069 81.1983 495208.6689 -5.7585 -6.3554
TCL: Setting parameter constraintScaling to 0.01953125
TCL: Running for 5000 steps
ETITLE: TS BOND ANGLE DIHED IMPRP ELECT VDW BOUNDARY MISC KINETIC TOTAL TEMP POTENTIAL TOTAL3 TEMPAVG PRESSURE GPRESSURE VOLUME PRESSAVG GPRESSAVG
ENERGY: 45000 1633.5291 2379.8801 3206.4261 0.0000 -176386.2247 20102.0785 63.1175 0.0000 30889.4809 -118111.7125 300.3293 -149001.1935 -118068.7728 300.3293 112.0411 79.5639 495208.6689 112.0411 79.5639
ENERGY: 46000 1612.8050 2438.7669 3209.9798 0.0000 -175644.3082 19854.8666 75.6067 0.0000 30526.7678 -117925.5153 296.8028 -148452.2832 -117883.9248 298.6462 14.5074 43.1978 496041.6219 3.2401 2.9137
ENERGY: 47000 1618.2235 2439.8922 3195.9434 0.0000 -176127.8820 20090.4403 79.6983 0.0000 30817.9261 -117885.7582 299.6336 -148703.6843 -117838.2492 299.8181 0.1902 78.2840 496162.8210 -8.6526 -8.9088
ENERGY: 48000 1606.9166 2420.5912 3206.8484 0.0000 -175776.2609 20064.8187 86.5084 0.0000 30932.0048 -117458.5728 300.7428 -148390.5776 -117402.8839 300.0429 27.6007 -5.5182 498027.7548 9.3237 9.3006
ENERGY: 49000 1607.9964 2373.8174 3189.0021 0.0000 -175872.2755 20049.7229 100.8295 0.0000 30849.3453 -117701.5619 299.9391 -148550.9073 -117653.5138 299.7137 46.0511 44.0119 497267.2604 9.2100 9.3392
ENERGY: 50000 1667.3552 2371.8939 3172.5691 0.0000 -176086.5350 20050.2826 96.9320 0.0000 30799.0362 -117928.4660 299.4499 -148727.5021 -117894.9010 299.3177 -170.2820 7.6243 496517.0395 -2.8957 -3.0064
TCL: Setting parameter constraintScaling to 0
TCL: Running for 5000 steps
ETITLE: TS BOND ANGLE DIHED IMPRP ELECT VDW BOUNDARY MISC KINETIC TOTAL TEMP POTENTIAL TOTAL3 TEMPAVG PRESSURE GPRESSURE VOLUME PRESSAVG GPRESSAVG
ENERGY: 50000 1667.3552 2371.8939 3172.5691 0.0000 -176086.5350 20050.2826 0.0000 0.0000 30796.9952 -118027.4389 299.4301 -148824.4341 -117984.5574 299.4301 -186.7461 -10.4347 496517.0395 -186.7461 -10.4347
ENERGY: 51000 1685.1021 2458.5386 3212.6939 0.0000 -175951.9797 20001.1638 0.0000 0.0000 30817.1993 -117777.2820 299.6265 -148594.4814 -117734.8936 299.0221 -18.9021 84.2603 495265.3509 -8.2100 -7.7786
ENERGY: 52000 1609.8151 2368.7600 3214.8743 0.0000 -176426.6062 20061.1149 0.0000 0.0000 30797.5576 -118374.4842 299.4356 -149172.0419 -118331.1897 298.8031 52.0823 34.5444 494845.6147 -1.0018 -0.8551
ENERGY: 53000 1656.4977 2354.4743 3191.3921 0.0000 -176322.4645 20203.8859 0.0000 0.0000 30600.7702 -118315.4443 297.5223 -148916.2145 -118281.0890 297.5437 -87.1047 47.9434 496570.2484 14.0927 14.5397
ENERGY: 54000 1624.9477 2388.8353 3184.2898 0.0000 -175892.4167 20084.3161 0.0000 0.0000 30866.4539 -117743.5738 300.1054 -148610.0277 -117687.7440 299.6079 -21.2390 41.8817 494567.6859 -4.3344 -5.1223
ENERGY: 55000 1636.7579 2342.7106 3211.1496 0.0000 -176179.3751 20089.2670 0.0000 0.0000 30801.2482 -118098.2417 299.4714 -148899.4899 -118058.1353 298.6877 -63.8801 -36.6136 495615.6875 6.1344 6.3315
