Info: SIMULATION PARAMETERS:
Info: TIMESTEP               2
Info: NUMBER OF STEPS        0
Info: STEPS PER CYCLE        10
Info: PERIODIC CELL BASIS 1  72.449 0 0
Info: PERIODIC CELL BASIS 2  0 93.247 0
Info: PERIODIC CELL BASIS 3  0 0 79.185
Info: PERIODIC CELL CENTER   -0.248 -0.156 -0.047
Info: WRAPPING WATERS AROUND PERIODIC BOUNDARIES ON OUTPUT.
Info: WRAPPING ALL CLUSTERS AROUND PERIODIC BOUNDARIES ON OUTPUT.
Info: FIRST LDB TIMESTEP     50
Info: LAST LDB TIMESTEP     -1
Info: HOM BACKGROUND SCALING 1
Info: PME BACKGROUND SCALING 1
Info: MIN ATOMS PER PATCH    40
Info: INITIAL TEMPERATURE    0
Info: CENTER OF MASS MOVING INITIALLY? NO
Info: DIELECTRIC             1
Info: EXCLUDE                SCALED ONE-FOUR
Info: 1-4 ELECTROSTATICS SCALED BY 0.833333
Info: MODIFIED 1-4 VDW PARAMETERS WILL BE USED
Info: NO DCD TRAJECTORY OUTPUT
Info: NO EXTENDED SYSTEM TRAJECTORY OUTPUT
Info: NO VELOCITY DCD OUTPUT
Info: NO FORCE DCD OUTPUT
Info: OUTPUT FILENAME        ../replicas/rep20/equilibration/eq0
Info: NO RESTART FILE
Info: SWITCHING ACTIVE
Info: SWITCHING ON           10
Info: SWITCHING OFF          12
Info: PAIRLIST DISTANCE      13.5
Info: PAIRLIST SHRINK RATE   0.01
Info: PAIRLIST GROW RATE     0.01
Info: PAIRLIST TRIGGER       0.3
Info: PAIRLISTS PER CYCLE    2
Info: PAIRLISTS ENABLED
Info: MARGIN                 0
Info: HYDROGEN GROUP CUTOFF  2.5
Info: PATCH DIMENSION        16
Info: ENERGY OUTPUT STEPS    500
Info: CROSSTERM ENERGY INCLUDED IN DIHEDRAL
Info: TIMING OUTPUT STEPS    5000
Info: PRESSURE OUTPUT STEPS  500
Info: HARMONIC CONSTRAINTS ACTIVE
Info: HARMONIC CONS EXP      2
Info: HARMONIC CONS SCALING  10
Info: CONJUGATE GRADIENT MINIMIZATION ACTIVE
Info: LINE MINIMIZATION GOAL = 0.001
Info: BABY STEP SIZE = 0.01
Info: TINY STEP SIZE = 1e-06
Info: PARTICLE MESH EWALD (PME) ACTIVE
Info: PME TOLERANCE               1e-06
Info: PME EWALD COEFFICIENT       0.257952
Info: PME INTERPOLATION ORDER     4
Info: PME GRID DIMENSIONS         80 96 80
Info: PME MAXIMUM GRID SPACING    1
Info: FULL ELECTROSTATIC EVALUATION FREQUENCY      2
Info: USING VERLET I (r-RESPA) MTS SCHEME.
Info: C1 SPLITTING OF LONG RANGE ELECTROSTATICS
Info: PLACING ATOMS IN PATCHES BY HYDROGEN GROUPS
Info: RIGID BONDS TO HYDROGEN : ALL
Info:         ERROR TOLERANCE : 1e-05
Info:          MAX ITERATIONS : 100
Info: RIGID WATER USING SETTLE ALGORITHM
Info: RANDOM NUMBER SEED     1503691990
Info: USE HYDROGEN BONDS?    NO
Info: Using AMBER format force field!
Info: AMBER PARM FILE        ../build/complex.top
Info: COORDINATE PDB         ../build/complex.pdb
Info: Exclusions in PARM file will be ignored!
Info: SCNB (VDW SCALING)     2
Info: USING ARITHMETIC MEAN TO COMBINE L-J SIGMA PARAMETERS
Info: SUMMARY OF PARAMETERS:
Info: 71 BONDS
Info: 145 ANGLES
Info: 76 DIHEDRAL
Info: 0 IMPROPER
Info: 0 CROSSTERM
Info: 0 VDW
Info: 190 VDW_PAIRS
Info: 0 NBTHOLE_PAIRS
Info: STRUCTURE SUMMARY:
Info: 49394 ATOMS
Info: 49448 BONDS
Info: 8698 ANGLES
Info: 18780 DIHEDRALS
Info: 0 IMPROPERS
Info: 0 CROSSTERMS
Info: 0 EXCLUSIONS
Info: 2336 CONSTRAINTS
Info: 47058 RIGID BONDS
Info: 101124 DEGREES OF FREEDOM
Info: 17225 HYDROGEN GROUPS
Info: 4 ATOMS IN LARGEST HYDROGEN GROUP
Info: 17225 MIGRATION GROUPS
Info: 4 ATOMS IN LARGEST MIGRATION GROUP
Info: TOTAL MASS = 301478 amu
Info: TOTAL CHARGE = 1.00115e-05 e
Info: MASS DENSITY = 0.935846 g/cm^3
Info: ATOM DENSITY = 0.0923345 atoms/A^3
Info: ADDED 70656 IMPLICIT EXCLUSIONS
Info: NONBONDED TABLE R-SQUARED SPACING: 0.0625
Info: NONBONDED TABLE SIZE: 769 POINTS
Info: REMOVING COM VELOCITY 0 0 0
TCL: Minimizing for 100 steps
ETITLE: TS BOND ANGLE DIHED IMPRP ELECT VDW BOUNDARY MISC KINETIC TOTAL TEMP POTENTIAL TOTAL3 TEMPAVG PRESSURE GPRESSURE VOLUME PRESSAVG GPRESSAVG
ENERGY: 0 155.4176 1012.2698 2855.7272 0.0000 -154496.7911 207729.2052 0.0468 0.0000 0.0000 57255.8755 0.0000 57255.8755 57255.8755 0.0000 116350.2532 86546.1670 534946.2959 116350.2532 86546.1670
ENERGY: 20 304.7556 935.7912 2893.4663 0.0000 -158672.9409 17936.6592 143.9454 0.0000 0.0000 -136458.3232 0.0000 -136458.3232 -136458.3232 0.0000 16523.9384 -239.4561 534946.2959 16523.9384 -239.4561
ENERGY: 40 198.7452 799.5729 2896.9273 0.0000 -162811.4528 16417.9538 221.3030 0.0000 0.0000 -142276.9506 0.0000 -142276.9506 -142276.9506 0.0000 15011.2704 -2135.4697 534946.2959 15011.2704 -2135.4697
ENERGY: 60 130.5282 715.3440 2898.2166 0.0000 -167496.1574 15446.7539 315.2796 0.0000 0.0000 -147990.0351 0.0000 -147990.0351 -147990.0351 0.0000 13793.8836 -3799.3988 534946.2959 13793.8836 -3799.3988
ENERGY: 80 431.2715 765.6305 2904.3786 0.0000 -169937.5268 15121.1527 372.0122 0.0000 0.0000 -150343.0812 0.0000 -150343.0812 -150343.0812 0.0000 13270.3313 -4577.2438 534946.2959 13270.3313 -4577.2438
ENERGY: 100 129.7146 708.0652 2904.2781 0.0000 -171050.0695 15018.6528 384.2001 0.0000 0.0000 -151905.1587 0.0000 -151905.1587 -151905.1587 0.0000 13092.9121 -4843.6328 534946.2959 13092.9121 -4843.6328
TCL: Setting parameter constraintScaling to 5.0
TCL: Minimizing for 100 steps
ETITLE: TS BOND ANGLE DIHED IMPRP ELECT VDW BOUNDARY MISC KINETIC TOTAL TEMP POTENTIAL TOTAL3 TEMPAVG PRESSURE GPRESSURE VOLUME PRESSAVG GPRESSAVG
ENERGY: 100 129.7146 708.0652 2904.2781 0.0000 -171050.0695 15018.6528 192.1001 0.0000 0.0000 -152097.2587 0.0000 -152097.2587 -152097.2587 0.0000 13703.5074 -22944.4559 534946.2959 13703.5074 -22944.4559
ENERGY: 120 118.6821 680.2876 2909.9066 0.0000 -172396.3189 14830.1201 259.9550 0.0000 0.0000 -153597.3675 0.0000 -153597.3675 -153597.3675 0.0000 13320.9465 -4756.3086 534946.2959 13320.9465 -4756.3086
ENERGY: 140 109.1485 671.1466 2912.0864 0.0000 -174830.2941 14716.1436 337.7317 0.0000 0.0000 -156084.0374 0.0000 -156084.0374 -156084.0374 0.0000 12908.9545 -5423.1541 534946.2959 12908.9545 -5423.1541
ENERGY: 160 125.8552 667.1498 2914.1926 0.0000 -175966.9919 14735.1321 362.9175 0.0000 0.0000 -157161.7447 0.0000 -157161.7447 -157161.7447 0.0000 12806.9009 -5636.2866 534946.2959 12806.9009 -5636.2866
ENERGY: 180 303.5139 659.6765 2917.2965 0.0000 -177408.6656 14815.0113 395.3818 0.0000 0.0000 -158317.7857 0.0000 -158317.7857 -158317.7857 0.0000 12699.3178 -5893.3485 534946.2959 12699.3178 -5893.3485
ENERGY: 200 109.2098 628.4758 2923.3596 0.0000 -179544.1131 15071.2004 441.8896 0.0000 0.0000 -160369.9780 0.0000 -160369.9780 -160369.9780 0.0000 12659.9893 -6152.8512 534946.2959 12659.9893 -6152.8512
TCL: Setting parameter constraintScaling to 2.5
TCL: Minimizing for 100 steps
ETITLE: TS BOND ANGLE DIHED IMPRP ELECT VDW BOUNDARY MISC KINETIC TOTAL TEMP POTENTIAL TOTAL3 TEMPAVG PRESSURE GPRESSURE VOLUME PRESSAVG GPRESSAVG
ENERGY: 200 109.2098 628.4758 2923.3596 0.0000 -179544.1131 15071.2004 220.9448 0.0000 0.0000 -160590.9227 0.0000 -160590.9227 -160590.9227 0.0000 13208.4187 -25272.0175 534946.2959 13208.4187 -25272.0175
ENERGY: 220 169.1786 639.6901 2924.9594 0.0000 -180453.3431 15113.9006 291.2709 0.0000 0.0000 -161314.3434 0.0000 -161314.3434 -161314.3434 0.0000 13002.3921 -5915.4932 534946.2959 13002.3921 -5915.4932
ENERGY: 240 251.8332 643.1270 2921.3956 0.0000 -181894.3433 15358.9496 339.5635 0.0000 0.0000 -162379.4745 0.0000 -162379.4745 -162379.4745 0.0000 12964.0807 -6108.5559 534946.2959 12964.0807 -6108.5559
ENERGY: 260 173.9510 638.9703 2923.9242 0.0000 -184189.6096 15910.3948 437.9860 0.0000 0.0000 -164104.3834 0.0000 -164104.3834 -164104.3834 0.0000 13009.4551 -6307.8441 534946.2959 13009.4551 -6307.8441
ENERGY: 280 146.3666 648.6436 2918.2251 0.0000 -184720.7133 16071.2289 428.0713 0.0000 0.0000 -164508.1778 0.0000 -164508.1778 -164508.1778 0.0000 13128.4701 -6262.1749 534946.2959 13128.4701 -6262.1749
ENERGY: 300 142.8536 652.7779 2927.1297 0.0000 -186805.6884 16758.8646 424.2105 0.0000 0.0000 -165899.8521 0.0000 -165899.8521 -165899.8521 0.0000 13462.8070 -6161.8441 534946.2959 13462.8070 -6161.8441
TCL: Setting parameter constraintScaling to 1.25
TCL: Minimizing for 100 steps
ETITLE: TS BOND ANGLE DIHED IMPRP ELECT VDW BOUNDARY MISC KINETIC TOTAL TEMP POTENTIAL TOTAL3 TEMPAVG PRESSURE GPRESSURE VOLUME PRESSAVG GPRESSAVG
ENERGY: 300 142.8536 652.7779 2927.1297 0.0000 -186805.6884 16758.8646 212.1053 0.0000 0.0000 -166111.9573 0.0000 -166111.9573 -166111.9573 0.0000 13871.9671 -26298.3499 534946.2959 13871.9671 -26298.3499
ENERGY: 320 183.9185 681.0962 2907.4576 0.0000 -187536.4611 16927.8390 272.2204 0.0000 0.0000 -166563.9293 0.0000 -166563.9293 -166563.9293 0.0000 13807.5440 -5896.6524 534946.2959 13807.5440 -5896.6524
ENERGY: 340 202.0411 674.2441 2916.5398 0.0000 -188800.8418 17278.0810 352.3718 0.0000 0.0000 -167377.5641 0.0000 -167377.5641 -167377.5641 0.0000 13800.7910 -6039.3723 534946.2959 13800.7910 -6039.3723
ENERGY: 360 188.6842 663.2546 2903.7792 0.0000 -189963.1318 17702.9458 395.4442 0.0000 0.0000 -168109.0238 0.0000 -168109.0238 -168109.0238 0.0000 13949.7188 -6025.8797 534946.2959 13949.7188 -6025.8797
ENERGY: 380 143.8194 643.2016 2896.9759 0.0000 -190883.8106 18068.2478 425.6543 0.0000 0.0000 -168705.9116 0.0000 -168705.9116 -168705.9116 0.0000 14106.0301 -5975.2127 534946.2959 14106.0301 -5975.2127
ENERGY: 400 145.9036 640.9775 2899.4575 0.0000 -191474.1517 18281.9382 410.5338 0.0000 0.0000 -169095.3410 0.0000 -169095.3410 -169095.3410 0.0000 14231.5237 -5917.2256 534946.2959 14231.5237 -5917.2256
TCL: Setting parameter constraintScaling to 0.625
TCL: Minimizing for 100 steps
ETITLE: TS BOND ANGLE DIHED IMPRP ELECT VDW BOUNDARY MISC KINETIC TOTAL TEMP POTENTIAL TOTAL3 TEMPAVG PRESSURE GPRESSURE VOLUME PRESSAVG GPRESSAVG
ENERGY: 400 145.9036 640.9775 2899.4575 0.0000 -191474.1517 18281.9382 205.2669 0.0000 0.0000 -169300.6080 0.0000 -169300.6080 -169300.6080 0.0000 14536.3465 -26735.5282 534946.2959 14536.3465 -26735.5282
ENERGY: 420 170.8275 660.0764 2895.7073 0.0000 -192142.0140 18488.7595 235.0766 0.0000 0.0000 -169691.5666 0.0000 -169691.5666 -169691.5666 0.0000 14619.0911 -5626.3353 534946.2959 14619.0911 -5626.3353
ENERGY: 440 193.2728 703.0130 2897.4627 0.0000 -192867.5381 18738.2632 269.2959 0.0000 0.0000 -170066.2305 0.0000 -170066.2305 -170066.2305 0.0000 14561.1396 -5712.4878 534946.2959 14561.1396 -5712.4878
ENERGY: 460 147.4173 642.8084 2886.8804 0.0000 -192953.3672 18767.4938 267.2134 0.0000 0.0000 -170241.5539 0.0000 -170241.5539 -170241.5539 0.0000 14672.5114 -5646.7236 534946.2959 14672.5114 -5646.7236
ENERGY: 480 273.2794 677.6750 2884.1160 0.0000 -193825.4906 19112.9631 277.0228 0.0000 0.0000 -170600.4343 0.0000 -170600.4343 -170600.4343 0.0000 14849.4566 -5578.9030 534946.2959 14849.4566 -5578.9030
ENERGY: 500 156.2310 644.1259 2886.9973 0.0000 -194338.6833 19299.6701 289.5733 0.0000 0.0000 -171062.0856 0.0000 -171062.0856 -171062.0856 0.0000 14881.2833 -5572.7922 534946.2959 14881.2833 -5572.7922
TCL: Setting parameter constraintScaling to 0.3125
TCL: Minimizing for 100 steps
ETITLE: TS BOND ANGLE DIHED IMPRP ELECT VDW BOUNDARY MISC KINETIC TOTAL TEMP POTENTIAL TOTAL3 TEMPAVG PRESSURE GPRESSURE VOLUME PRESSAVG GPRESSAVG
ENERGY: 500 156.2310 644.1259 2886.9973 0.0000 -194338.6833 19299.6701 144.7867 0.0000 0.0000 -171206.8722 0.0000 -171206.8722 -171206.8722 0.0000 15070.4383 -26872.8566 534946.2959 15070.4383 -26872.8566
ENERGY: 520 158.7794 646.1549 2874.4644 0.0000 -194577.4927 19388.2766 154.4219 0.0000 0.0000 -171355.3955 0.0000 -171355.3955 -171355.3955 0.0000 15122.0800 -5372.5354 534946.2959 15122.0800 -5372.5354
ENERGY: 540 152.8306 643.2142 2872.8579 0.0000 -195084.7955 19554.0752 172.8660 0.0000 0.0000 -171688.9517 0.0000 -171688.9517 -171688.9517 0.0000 15153.4750 -5397.7556 534946.2959 15153.4750 -5397.7556
ENERGY: 560 173.2665 652.9933 2877.6311 0.0000 -195543.4062 19722.3646 177.7541 0.0000 0.0000 -171939.3967 0.0000 -171939.3967 -171939.3967 0.0000 15209.9635 -5380.2968 534946.2959 15209.9635 -5380.2968
ENERGY: 580 171.7496 649.0760 2869.5643 0.0000 -196603.0384 20136.6019 202.8027 0.0000 0.0000 -172573.2440 0.0000 -172573.2440 -172573.2440 0.0000 15377.1152 -5331.9169 534946.2959 15377.1152 -5331.9169
ENERGY: 600 154.0830 651.4187 2866.2228 0.0000 -197794.8180 20645.8926 234.6950 0.0000 0.0000 -173242.5059 0.0000 -173242.5059 -173242.5059 0.0000 15608.9278 -5245.0712 534946.2959 15608.9278 -5245.0712
TCL: Setting parameter constraintScaling to 0.15625
TCL: Minimizing for 100 steps
ETITLE: TS BOND ANGLE DIHED IMPRP ELECT VDW BOUNDARY MISC KINETIC TOTAL TEMP POTENTIAL TOTAL3 TEMPAVG PRESSURE GPRESSURE VOLUME PRESSAVG GPRESSAVG
ENERGY: 600 154.0830 651.4187 2866.2228 0.0000 -197794.8180 20645.8926 117.3475 0.0000 0.0000 -173359.8534 0.0000 -173359.8534 -173359.8534 0.0000 15734.7934 -27020.2981 534946.2959 15734.7934 -27020.2981
ENERGY: 620 195.3787 648.8880 2859.6330 0.0000 -198123.5228 20744.9336 121.7632 0.0000 0.0000 -173552.9263 0.0000 -173552.9263 -173552.9263 0.0000 15784.5995 -5111.4654 534946.2959 15784.5995 -5111.4654
ENERGY: 640 346.9030 680.0299 2852.7246 0.0000 -198784.7161 20968.7691 133.3334 0.0000 0.0000 -173802.9561 0.0000 -173802.9561 -173802.9561 0.0000 15860.3987 -5115.8001 534946.2959 15860.3987 -5115.8001
ENERGY: 660 166.3277 653.6247 2855.5382 0.0000 -199069.8999 21070.2428 135.2898 0.0000 0.0000 -174188.8765 0.0000 -174188.8765 -174188.8765 0.0000 15897.3738 -5099.0029 534946.2959 15897.3738 -5099.0029
ENERGY: 680 185.0047 693.3470 2855.8635 0.0000 -199822.5390 21372.5089 141.4866 0.0000 0.0000 -174574.3282 0.0000 -174574.3282 -174574.3282 0.0000 16128.7543 -4983.4346 534946.2959 16128.7543 -4983.4346
ENERGY: 700 157.0835 647.6966 2842.8001 0.0000 -200623.5419 21661.9465 155.7634 0.0000 0.0000 -175158.2518 0.0000 -175158.2518 -175158.2518 0.0000 16214.9984 -4975.6580 534946.2959 16214.9984 -4975.6580
TCL: Setting parameter constraintScaling to 0.078125
TCL: Minimizing for 100 steps
ETITLE: TS BOND ANGLE DIHED IMPRP ELECT VDW BOUNDARY MISC KINETIC TOTAL TEMP POTENTIAL TOTAL3 TEMPAVG PRESSURE GPRESSURE VOLUME PRESSAVG GPRESSAVG
ENERGY: 700 157.0835 647.6966 2842.8001 0.0000 -200623.5419 21661.9465 77.8817 0.0000 0.0000 -175236.1335 0.0000 -175236.1335 -175236.1335 0.0000 16289.8406 -27145.2933 534946.2959 16289.8406 -27145.2933
ENERGY: 720 210.7050 653.3946 2836.6439 0.0000 -200891.7300 21755.5065 81.8001 0.0000 0.0000 -175353.6800 0.0000 -175353.6800 -175353.6800 0.0000 16315.0029 -4906.5999 534946.2959 16315.0029 -4906.5999
ENERGY: 740 156.6665 650.8450 2833.9706 0.0000 -201420.0223 21950.2230 87.6493 0.0000 0.0000 -175740.6679 0.0000 -175740.6679 -175740.6679 0.0000 16403.1184 -4877.3071 534946.2959 16403.1184 -4877.3071
ENERGY: 760 202.6087 710.7924 2834.9750 0.0000 -201955.2737 22153.1162 92.7293 0.0000 0.0000 -175961.0522 0.0000 -175961.0522 -175961.0522 0.0000 16538.9641 -4826.6216 534946.2959 16538.9641 -4826.6216
ENERGY: 780 272.2182 667.0572 2828.7290 0.0000 -202272.5194 22284.9594 94.2365 0.0000 0.0000 -176125.3190 0.0000 -176125.3190 -176125.3190 0.0000 16569.3430 -4821.7139 534946.2959 16569.3430 -4821.7139
ENERGY: 800 165.3803 643.9402 2827.3162 0.0000 -202618.2453 22422.1453 96.3380 0.0000 0.0000 -176463.1254 0.0000 -176463.1254 -176463.1254 0.0000 16620.6549 -4793.4265 534946.2959 16620.6549 -4793.4265
TCL: Setting parameter constraintScaling to 0.0390625
TCL: Minimizing for 100 steps
ETITLE: TS BOND ANGLE DIHED IMPRP ELECT VDW BOUNDARY MISC KINETIC TOTAL TEMP POTENTIAL TOTAL3 TEMPAVG PRESSURE GPRESSURE VOLUME PRESSAVG GPRESSAVG
ENERGY: 800 165.3803 643.9402 2827.3162 0.0000 -202618.2453 22422.1453 48.1690 0.0000 0.0000 -176511.2944 0.0000 -176511.2944 -176511.2944 0.0000 16663.2010 -27251.1630 534946.2959 16663.2010 -27251.1630
ENERGY: 820 196.4169 650.1376 2824.3325 0.0000 -202853.7015 22513.8450 50.0660 0.0000 0.0000 -176618.9036 0.0000 -176618.9036 -176618.9036 0.0000 16699.5016 -4746.0488 534946.2959 16699.5016 -4746.0488
ENERGY: 840 168.4941 653.0621 2823.7732 0.0000 -203133.0361 22622.9471 51.6375 0.0000 0.0000 -176813.1222 0.0000 -176813.1222 -176813.1222 0.0000 16773.4412 -4708.5964 534946.2959 16773.4412 -4708.5964
ENERGY: 860 160.4846 651.6151 2821.3621 0.0000 -203580.0395 22809.6483 54.2203 0.0000 0.0000 -177082.7090 0.0000 -177082.7090 -177082.7090 0.0000 16864.9653 -4669.9179 534946.2959 16864.9653 -4669.9179
ENERGY: 880 165.0534 651.0218 2818.9662 0.0000 -203801.9040 22903.9932 55.1183 0.0000 0.0000 -177207.7511 0.0000 -177207.7511 -177207.7511 0.0000 16915.1215 -4645.2633 534946.2959 16915.1215 -4645.2633
ENERGY: 900 182.0265 664.0187 2819.3535 0.0000 -204458.1489 23192.1684 57.9165 0.0000 0.0000 -177542.6653 0.0000 -177542.6653 -177542.6653 0.0000 17059.3398 -4581.0686 534946.2959 17059.3398 -4581.0686
TCL: Setting parameter constraintScaling to 0.01953125
TCL: Minimizing for 100 steps
ETITLE: TS BOND ANGLE DIHED IMPRP ELECT VDW BOUNDARY MISC KINETIC TOTAL TEMP POTENTIAL TOTAL3 TEMPAVG PRESSURE GPRESSURE VOLUME PRESSAVG GPRESSAVG
ENERGY: 900 182.0265 664.0187 2819.3535 0.0000 -204458.1489 23192.1684 28.9582 0.0000 0.0000 -177571.6235 0.0000 -177571.6235 -177571.6235 0.0000 17083.3896 -27269.4952 534946.2959 17083.3896 -27269.4952
ENERGY: 920 160.6689 649.8605 2815.3391 0.0000 -204504.4791 23209.9698 29.2278 0.0000 0.0000 -177639.4129 0.0000 -177639.4129 -177639.4129 0.0000 17095.4738 -4544.7975 534946.2959 17095.4738 -4544.7975
ENERGY: 940 164.0316 657.0226 2812.1971 0.0000 -204666.3721 23287.6846 30.0649 0.0000 0.0000 -177715.3714 0.0000 -177715.3714 -177715.3714 0.0000 17124.8584 -4532.7058 534946.2959 17124.8584 -4532.7058
ENERGY: 960 169.3905 660.7637 2816.9217 0.0000 -204751.1520 23312.7742 30.0744 0.0000 0.0000 -177761.2274 0.0000 -177761.2274 -177761.2274 0.0000 17147.4376 -4526.3086 534946.2959 17147.4376 -4526.3086
ENERGY: 980 181.3056 667.1162 2815.6675 0.0000 -204975.7003 23411.9657 30.7042 0.0000 0.0000 -177868.9412 0.0000 -177868.9412 -177868.9412 0.0000 17186.6660 -4500.9190 534946.2959 17186.6660 -4500.9190
ENERGY: 1000 171.9068 665.1705 2812.2952 0.0000 -205482.4684 23631.6733 32.5979 0.0000 0.0000 -178168.8247 0.0000 -178168.8247 -178168.8247 0.0000 17308.8755 -4454.2630 534946.2959 17308.8755 -4454.2630
TCL: Setting parameter constraintScaling to 0
TCL: Minimizing for 5000 steps
ETITLE: TS BOND ANGLE DIHED IMPRP ELECT VDW BOUNDARY MISC KINETIC TOTAL TEMP POTENTIAL TOTAL3 TEMPAVG PRESSURE GPRESSURE VOLUME PRESSAVG GPRESSAVG
ENERGY: 1000 171.9068 665.1705 2812.2952 0.0000 -205482.4684 23631.6733 0.0000 0.0000 0.0000 -178201.4226 0.0000 -178201.4226 -178201.4226 0.0000 17334.8021 -27258.6582 534946.2959 17334.8021 -27258.6582
ENERGY: 2000 169.0034 665.9946 2804.5660 0.0000 -214517.6681 27886.6070 0.0000 0.0000 0.0000 -182991.4971 0.0000 -182991.4971 -182991.4971 0.0000 19610.7664 -3157.3303 534946.2959 19610.7664 -3157.3303
ENERGY: 3000 166.4265 664.6564 2795.9879 0.0000 -217252.6748 28740.6663 0.0000 0.0000 0.0000 -184884.9376 0.0000 -184884.9376 -184884.9376 0.0000 20032.5354 -3020.0409 534946.2959 20032.5354 -3020.0409
ENERGY: 4000 166.1826 662.0743 2788.3111 0.0000 -218765.6935 29400.1435 0.0000 0.0000 0.0000 -185748.9820 0.0000 -185748.9820 -185748.9820 0.0000 20388.7386 -2818.4754 534946.2959 20388.7386 -2818.4754
ENERGY: 5000 167.0444 665.0864 2785.2878 0.0000 -219451.6356 29641.8547 0.0000 0.0000 0.0000 -186192.3623 0.0000 -186192.3623 -186192.3623 0.0000 20501.2574 -2762.6386 534946.2959 20501.2574 -2762.6386
ENERGY: 6000 166.8170 667.4508 2783.9925 0.0000 -219894.9064 29808.4467 0.0000 0.0000 0.0000 -186468.1994 0.0000 -186468.1994 -186468.1994 0.0000 20589.5794 -2719.8112 534946.2959 20589.5794 -2719.8112
