Info: SIMULATION PARAMETERS:
Info: TIMESTEP               1
Info: NUMBER OF STEPS        0
Info: STEPS PER CYCLE        10
Info: PERIODIC CELL BASIS 1  72.449 0 0
Info: PERIODIC CELL BASIS 2  0 93.247 0
Info: PERIODIC CELL BASIS 3  0 0 79.185
Info: PERIODIC CELL CENTER   -0.248 -0.156 -0.047
Info: WRAPPING WATERS AROUND PERIODIC BOUNDARIES ON OUTPUT.
Info: WRAPPING ALL CLUSTERS AROUND PERIODIC BOUNDARIES ON OUTPUT.
Info: FIRST LDB TIMESTEP     50
Info: LAST LDB TIMESTEP     -1
Info: HOM BACKGROUND SCALING 1
Info: PME BACKGROUND SCALING 1
Info: MIN ATOMS PER PATCH    40
Info: VELOCITY FILE          ../replicas/rep79/equilibration/eq1.vel
Info: CENTER OF MASS MOVING INITIALLY? NO
Info: DIELECTRIC             1
Info: EXCLUDE                SCALED ONE-FOUR
Info: 1-4 ELECTROSTATICS SCALED BY 0.833333
Info: MODIFIED 1-4 VDW PARAMETERS WILL BE USED
Info: DCD FILENAME           ../replicas/rep79/equilibration/eq2.dcd
Info: DCD FREQUENCY          5000
Info: DCD FIRST STEP         5000
Info: DCD FILE WILL CONTAIN UNIT CELL DATA
Info: XST FILENAME           ../replicas/rep79/equilibration/eq2.xst
Info: XST FREQUENCY          5000
Info: NO VELOCITY DCD OUTPUT
Info: NO FORCE DCD OUTPUT
Info: OUTPUT FILENAME        ../replicas/rep79/equilibration/eq2
Info: RESTART FILENAME       ../replicas/rep79/equilibration/eq2.restart
Info: RESTART FREQUENCY      5000
Info: BINARY RESTART FILES WILL BE USED
Info: SWITCHING ACTIVE
Info: SWITCHING ON           10
Info: SWITCHING OFF          12
Info: PAIRLIST DISTANCE      13.5
Info: PAIRLIST SHRINK RATE   0.01
Info: PAIRLIST GROW RATE     0.01
Info: PAIRLIST TRIGGER       0.3
Info: PAIRLISTS PER CYCLE    2
Info: PAIRLISTS ENABLED
Info: MARGIN                 0.48
Info: HYDROGEN GROUP CUTOFF  2.5
Info: PATCH DIMENSION        16.48
Info: ENERGY OUTPUT STEPS    500
Info: CROSSTERM ENERGY INCLUDED IN DIHEDRAL
Info: TIMING OUTPUT STEPS    5000
Info: PRESSURE OUTPUT STEPS  500
Info: HARMONIC CONSTRAINTS ACTIVE
Info: HARMONIC CONS EXP      2
Info: HARMONIC CONS SCALING  10
Info: LANGEVIN DYNAMICS ACTIVE
Info: LANGEVIN TEMPERATURE   300
Info: LANGEVIN USING BBK INTEGRATOR
Info: LANGEVIN DAMPING COEFFICIENT IS 5 INVERSE PS
Info: LANGEVIN DYNAMICS NOT APPLIED TO HYDROGENS
Info: BERENDSEN PRESSURE COUPLING ACTIVE
Info:     TARGET PRESSURE IS 1 BAR
Info:     COMPRESSIBILITY ESTIMATE IS 4.57e-05 BAR^(-1)
Info:     RELAXATION TIME IS 100 FS
Info:     APPLIED EVERY 2 STEPS
Info:     PRESSURE CONTROL IS GROUP-BASED
Info:       CELL FLUCTUATION IS ISOTROPIC
Info: PARTICLE MESH EWALD (PME) ACTIVE
Info: PME TOLERANCE               1e-06
Info: PME EWALD COEFFICIENT       0.257952
Info: PME INTERPOLATION ORDER     4
Info: PME GRID DIMENSIONS         80 96 80
Info: PME MAXIMUM GRID SPACING    1
Info: FULL ELECTROSTATIC EVALUATION FREQUENCY      2
Info: USING VERLET I (r-RESPA) MTS SCHEME.
Info: C1 SPLITTING OF LONG RANGE ELECTROSTATICS
Info: PLACING ATOMS IN PATCHES BY HYDROGEN GROUPS
Info: RIGID BONDS TO HYDROGEN : WATER
Info:         ERROR TOLERANCE : 1e-05
Info:          MAX ITERATIONS : 100
Info: RIGID WATER USING SETTLE ALGORITHM
Info: RANDOM NUMBER SEED     1503707435
Info: USE HYDROGEN BONDS?    NO
Info: Using AMBER format force field!
Info: AMBER PARM FILE        ../build/complex.top
Info: COORDINATE PDB         ../replicas/rep79/equilibration/eq1.coor
Info: Exclusions in PARM file will be ignored!
Info: SCNB (VDW SCALING)     2
Info: USING ARITHMETIC MEAN TO COMBINE L-J SIGMA PARAMETERS
Info: SUMMARY OF PARAMETERS:
Info: 71 BONDS
Info: 145 ANGLES
Info: 76 DIHEDRAL
Info: 0 IMPROPER
Info: 0 CROSSTERM
Info: 0 VDW
Info: 190 VDW_PAIRS
Info: 0 NBTHOLE_PAIRS
Info: STRUCTURE SUMMARY:
Info: 49394 ATOMS
Info: 49448 BONDS
Info: 8698 ANGLES
Info: 18780 DIHEDRALS
Info: 0 IMPROPERS
Info: 0 CROSSTERMS
Info: 0 EXCLUSIONS
Info: 2336 CONSTRAINTS
Info: 44667 RIGID BONDS
Info: 103515 DEGREES OF FREEDOM
Info: 17225 HYDROGEN GROUPS
Info: 4 ATOMS IN LARGEST HYDROGEN GROUP
Info: 17225 MIGRATION GROUPS
Info: 4 ATOMS IN LARGEST MIGRATION GROUP
Info: TOTAL MASS = 301478 amu
Info: TOTAL CHARGE = 1.00115e-05 e
Info: MASS DENSITY = 0.935846 g/cm^3
Info: ATOM DENSITY = 0.0923345 atoms/A^3
Info: ADDED 70656 IMPLICIT EXCLUSIONS
Info: NONBONDED TABLE R-SQUARED SPACING: 0.0625
Info: NONBONDED TABLE SIZE: 769 POINTS
Info: REMOVING COM VELOCITY -0.00170989 -0.0167005 -0.0044503
TCL: Running for 5000 steps
ETITLE: TS BOND ANGLE DIHED IMPRP ELECT VDW BOUNDARY MISC KINETIC TOTAL TEMP POTENTIAL TOTAL3 TEMPAVG PRESSURE GPRESSURE VOLUME PRESSAVG GPRESSAVG
ENERGY: 0 383.4587 1236.0082 2932.1966 0.0000 -212759.0667 29588.1184 0.0000 0.0000 10033.7061 -168585.5787 97.5548 -178619.2848 -168575.8899 97.5548 -2305.7733 -2403.0205 534946.2959 -2305.7733 -2403.0205
ENERGY: 1000 1228.8349 2027.5410 3104.2530 0.0000 -193579.7183 26555.7893 787.4103 0.0000 24092.7493 -135783.1406 234.2467 -159875.8898 -135758.8360 217.9056 -60.6881 -1.3984 520918.8656 -25.9693 -25.8998
ENERGY: 2000 1466.6851 2102.7826 3156.0688 0.0000 -184169.5197 23256.4305 823.1648 0.0000 27999.2584 -125365.1294 272.2285 -153364.3879 -125340.0633 264.5182 -92.1171 -31.9835 514714.5498 -24.6887 -24.3809
ENERGY: 3000 1501.9519 2224.7615 3159.0481 0.0000 -178928.8370 21266.6179 782.5324 0.0000 29439.6339 -120554.2914 286.2329 -149993.9253 -120518.4976 284.7915 175.5520 41.4763 510599.1343 -20.2106 -20.0635
ENERGY: 4000 1571.5765 2234.1138 3164.5007 0.0000 -177111.2349 20801.8430 778.9605 0.0000 30249.1959 -118311.0445 294.1040 -148560.2404 -118267.9563 292.5752 -81.1674 -28.3678 505923.5136 -19.7703 -19.9278
ENERGY: 5000 1568.8254 2321.2768 3152.2648 0.0000 -175816.6085 20266.5493 824.0027 0.0000 30772.6857 -116911.0039 299.1937 -147683.6895 -116861.5080 296.7996 -69.9469 18.7863 505311.7284 4.8669 5.4291
TCL: Setting parameter constraintScaling to 5.0
TCL: Running for 5000 steps
ETITLE: TS BOND ANGLE DIHED IMPRP ELECT VDW BOUNDARY MISC KINETIC TOTAL TEMP POTENTIAL TOTAL3 TEMPAVG PRESSURE GPRESSURE VOLUME PRESSAVG GPRESSAVG
ENERGY: 5000 1568.8254 2321.2768 3152.2648 0.0000 -175816.6086 20266.5493 412.0014 0.0000 30770.6620 -117325.0289 299.1741 -148095.6909 -117281.5795 299.1741 -171.4018 -83.6858 505311.7284 -171.4018 -83.6858
ENERGY: 6000 1563.1615 2265.5771 3161.0343 0.0000 -175390.8584 20255.9937 645.1738 0.0000 30668.6158 -116831.3022 298.1819 -147499.9180 -116800.3826 299.1617 -31.4654 -3.5778 503971.7589 -8.4168 -8.6108
ENERGY: 7000 1582.5687 2303.6390 3175.8618 0.0000 -175220.1782 20236.8555 669.7039 0.0000 30911.7802 -116339.7691 300.5461 -147251.5493 -116290.4306 299.3190 38.7651 11.1189 504407.5775 -4.1085 -4.3187
ENERGY: 8000 1559.7771 2328.4284 3180.4968 0.0000 -175321.4889 20006.9460 635.7205 0.0000 30757.0866 -116853.0335 299.0421 -147610.1200 -116804.0222 298.9178 -29.8938 -28.4648 503028.0485 6.0037 6.2265
ENERGY: 9000 1606.8738 2355.3474 3187.9877 0.0000 -175575.0565 20054.1496 645.3187 0.0000 30626.9980 -117098.3813 297.7773 -147725.3793 -117061.4709 299.0084 -138.0991 -44.2963 500517.4266 -18.7885 -18.3516
ENERGY: 10000 1617.3301 2338.7505 3173.8456 0.0000 -175896.2891 20157.6373 668.6357 0.0000 30694.6046 -117245.4854 298.4346 -147940.0899 -117199.9830 299.4029 62.6725 -23.3371 500800.0298 0.5367 0.9595
TCL: Setting parameter constraintScaling to 2.5
TCL: Running for 5000 steps
ETITLE: TS BOND ANGLE DIHED IMPRP ELECT VDW BOUNDARY MISC KINETIC TOTAL TEMP POTENTIAL TOTAL3 TEMPAVG PRESSURE GPRESSURE VOLUME PRESSAVG GPRESSAVG
ENERGY: 10000 1617.3301 2338.7505 3173.8456 0.0000 -175896.2891 20157.6373 334.3178 0.0000 30692.5658 -117581.8420 298.4148 -148274.4078 -117537.2781 298.4148 -6.2775 -80.5318 500800.0298 -6.2775 -80.5318
ENERGY: 11000 1696.4655 2329.4510 3190.9170 0.0000 -175255.6638 19985.1843 523.6411 0.0000 30667.6667 -116862.3382 298.1727 -147530.0049 -116808.5763 299.8140 -37.8003 -10.4114 500125.0316 -0.1000 0.2268
ENERGY: 12000 1607.0525 2328.2214 3195.1571 0.0000 -175765.6934 20165.0576 521.6936 0.0000 30580.0721 -117368.4391 297.3210 -147948.5112 -117329.8748 299.1184 -64.8182 5.1042 498996.6110 -0.5701 -0.5587
ENERGY: 13000 1551.2206 2318.3359 3176.3173 0.0000 -175745.4841 20282.7712 517.3656 0.0000 31055.7144 -116843.7592 301.9455 -147899.4736 -116796.6687 300.0454 -69.6587 49.8406 499158.4441 -2.5201 -2.3341
ENERGY: 14000 1611.2496 2358.3269 3163.3060 0.0000 -175466.4206 20155.5098 474.6730 0.0000 30896.3024 -116807.0529 300.3956 -147703.3553 -116754.5844 300.5049 13.8624 -17.4130 501075.8858 6.2727 6.2437
ENERGY: 15000 1637.2107 2372.6123 3164.4197 0.0000 -175503.5285 19958.2052 526.7351 0.0000 30859.5669 -116984.7785 300.0385 -147844.3454 -116939.0489 300.6494 -111.4185 -28.0835 499523.1925 -6.5395 -6.7962
TCL: Setting parameter constraintScaling to 1.25
TCL: Running for 5000 steps
ETITLE: TS BOND ANGLE DIHED IMPRP ELECT VDW BOUNDARY MISC KINETIC TOTAL TEMP POTENTIAL TOTAL3 TEMPAVG PRESSURE GPRESSURE VOLUME PRESSAVG GPRESSAVG
ENERGY: 15000 1637.2107 2372.6123 3164.4197 0.0000 -175503.5285 19958.2052 263.3676 0.0000 30857.5100 -117250.2029 300.0185 -148107.7129 -117211.3440 300.0185 -118.5940 -44.4120 499523.1925 -118.5940 -44.4120
ENERGY: 16000 1630.6718 2347.1715 3203.1118 0.0000 -175479.8267 20079.9291 398.3294 0.0000 30904.8864 -116915.7268 300.4791 -147820.6132 -116870.2232 300.1388 76.0098 91.9526 499024.7188 5.1612 5.0278
ENERGY: 17000 1631.2765 2339.0234 3194.5945 0.0000 -175809.0570 20230.8697 392.8865 0.0000 30670.4932 -117349.9132 298.2001 -148020.4064 -117303.8397 300.0881 55.0476 62.6013 499403.1957 8.7404 8.5856
ENERGY: 18000 1635.6267 2421.3784 3191.3455 0.0000 -175376.7948 19836.1127 405.5453 0.0000 31043.5120 -116843.2741 301.8269 -147886.7861 -116794.7183 300.8442 -34.8387 8.4968 500291.5598 12.4317 12.5953
ENERGY: 19000 1612.8677 2378.0232 3234.4076 0.0000 -175630.6782 19931.9681 395.0917 0.0000 30867.7623 -117210.5575 300.1181 -148078.3198 -117176.1998 300.1222 -18.7285 33.4032 499093.4035 8.0348 8.0395
ENERGY: 20000 1654.1719 2317.5281 3194.1299 0.0000 -175543.9282 19955.7962 405.3633 0.0000 30851.5883 -117165.3506 299.9609 -148016.9388 -117125.4199 299.7480 -82.9032 28.3592 498697.8018 -1.5885 -2.1192
TCL: Setting parameter constraintScaling to 0.625
TCL: Running for 5000 steps
ETITLE: TS BOND ANGLE DIHED IMPRP ELECT VDW BOUNDARY MISC KINETIC TOTAL TEMP POTENTIAL TOTAL3 TEMPAVG PRESSURE GPRESSURE VOLUME PRESSAVG GPRESSAVG
ENERGY: 20000 1654.1719 2317.5281 3194.1299 0.0000 -175543.9282 19955.7962 202.6816 0.0000 30849.5488 -117370.0717 299.9411 -148219.6205 -117330.4337 299.9411 -150.4539 -43.3544 498697.8018 -150.4539 -43.3544
ENERGY: 21000 1630.5979 2408.8329 3221.9125 0.0000 -176032.5270 20200.4389 320.2383 0.0000 30627.2667 -117623.2398 297.7799 -148250.5065 -117584.0481 298.0710 -152.8770 -89.9238 498445.6762 1.1480 0.9613
ENERGY: 22000 1643.6259 2446.5485 3209.1877 0.0000 -175869.6350 20231.8740 316.1949 0.0000 30769.2178 -117252.9862 299.1600 -148022.2040 -117204.6438 299.6704 -56.0503 -4.3932 497350.0187 -8.9146 -9.3177
ENERGY: 23000 1674.1462 2397.1631 3212.5251 0.0000 -175602.2389 19953.2082 326.9743 0.0000 30598.1081 -117440.1139 297.4964 -148038.2219 -117388.5951 299.6584 127.9608 97.6539 497910.0958 7.9106 7.5440
ENERGY: 24000 1591.0280 2356.9518 3191.2951 0.0000 -175838.0188 20017.8638 316.1604 0.0000 30787.3356 -117577.3842 299.3362 -148364.7198 -117516.0835 299.2891 24.7566 33.3014 497732.9523 3.5313 3.5370
ENERGY: 25000 1619.7540 2405.9731 3206.9478 0.0000 -175931.5815 20050.3568 334.1362 0.0000 30957.5194 -117356.8943 300.9908 -148314.4136 -117315.5192 300.0523 54.0490 61.1034 496973.1934 -4.8482 -4.9239
TCL: Setting parameter constraintScaling to 0.3125
TCL: Running for 5000 steps
ETITLE: TS BOND ANGLE DIHED IMPRP ELECT VDW BOUNDARY MISC KINETIC TOTAL TEMP POTENTIAL TOTAL3 TEMPAVG PRESSURE GPRESSURE VOLUME PRESSAVG GPRESSAVG
ENERGY: 25000 1619.7540 2405.9731 3206.9478 0.0000 -175931.5815 20050.3568 167.0681 0.0000 30955.4866 -117525.9952 300.9711 -148481.4818 -117482.2165 300.9711 41.1258 48.8314 496973.1934 41.1258 48.8314
ENERGY: 26000 1660.2104 2402.3073 3243.1401 0.0000 -176003.0210 20144.6601 232.5673 0.0000 30680.1584 -117639.9775 298.2941 -148320.1359 -117604.6853 299.9001 -96.3098 -28.5586 498587.1681 -10.3561 -9.8989
ENERGY: 27000 1654.4967 2392.5699 3192.8793 0.0000 -176125.3598 20146.0490 248.2672 0.0000 30824.2606 -117666.8371 299.6952 -148491.0977 -117624.5882 299.6611 -87.4456 0.5637 498168.8861 -2.7115 -2.7391
ENERGY: 28000 1627.9159 2394.9125 3211.7883 0.0000 -175993.4052 20054.4948 266.6719 0.0000 30913.1362 -117524.4855 300.5593 -148437.6217 -117485.0960 298.9105 -10.7936 -10.2538 498168.6576 -4.0117 -4.0043
ENERGY: 29000 1625.2224 2421.8128 3212.2685 0.0000 -175325.6789 19828.6251 286.1666 0.0000 31059.4396 -116892.1439 301.9818 -147951.5835 -116847.6590 300.2509 -31.1053 -32.9828 498404.2158 2.2636 2.4508
ENERGY: 30000 1593.2732 2407.0501 3247.5513 0.0000 -176113.0481 20252.4050 251.4516 0.0000 30826.3142 -117535.0027 299.7152 -148361.3169 -117477.7846 299.6599 -26.4872 86.9762 497413.5227 -1.7062 -1.3620
TCL: Setting parameter constraintScaling to 0.15625
TCL: Running for 5000 steps
ETITLE: TS BOND ANGLE DIHED IMPRP ELECT VDW BOUNDARY MISC KINETIC TOTAL TEMP POTENTIAL TOTAL3 TEMPAVG PRESSURE GPRESSURE VOLUME PRESSAVG GPRESSAVG
ENERGY: 30000 1593.2732 2407.0501 3247.5513 0.0000 -176113.0481 20252.4050 125.7258 0.0000 30824.2944 -117662.7483 299.6955 -148487.0427 -117616.0738 299.6955 -35.1565 77.7629 497413.5227 -35.1565 77.7629
ENERGY: 31000 1679.0590 2477.2411 3217.2795 0.0000 -175826.1347 19909.8581 186.8880 0.0000 30676.7626 -117679.0464 298.2611 -148355.8090 -117638.9582 298.6701 -119.1246 -103.4770 497490.0821 6.6366 6.6872
ENERGY: 32000 1645.4706 2441.1868 3246.0308 0.0000 -175907.1895 20153.7141 191.7187 0.0000 30793.0444 -117436.0240 299.3917 -148229.0684 -117397.9024 299.5482 21.4005 47.0155 498182.2284 8.2420 8.5173
ENERGY: 33000 1576.7245 2381.0221 3225.3568 0.0000 -176152.9175 20204.2252 211.8086 0.0000 30928.5858 -117625.1947 300.7095 -148553.7804 -117575.3867 299.5890 -51.8117 -19.3832 498029.4736 5.8025 6.4357
ENERGY: 34000 1669.9533 2401.6758 3253.7637 0.0000 -175539.8823 19891.1046 192.5376 0.0000 30698.3489 -117432.4983 298.4710 -148130.8472 -117392.8250 299.0754 47.9350 -28.1998 498311.6891 2.9919 2.7095
ENERGY: 35000 1632.6469 2421.4434 3229.4383 0.0000 -176059.2217 20011.3226 203.8360 0.0000 31019.3548 -117541.1798 301.5920 -148560.5345 -117496.7907 299.8214 -42.7839 -8.2842 497619.1025 4.6780 4.5399
TCL: Setting parameter constraintScaling to 0.078125
TCL: Running for 5000 steps
ETITLE: TS BOND ANGLE DIHED IMPRP ELECT VDW BOUNDARY MISC KINETIC TOTAL TEMP POTENTIAL TOTAL3 TEMPAVG PRESSURE GPRESSURE VOLUME PRESSAVG GPRESSAVG
ENERGY: 35000 1632.6469 2421.4434 3229.4383 0.0000 -176059.2217 20011.3226 101.9180 0.0000 31017.2949 -117645.1576 301.5720 -148662.4525 -117603.9409 301.5720 -92.6766 -57.2332 497619.1025 -92.6766 -57.2332
ENERGY: 36000 1608.6626 2409.8748 3220.5631 0.0000 -175896.0985 19995.9840 140.3174 0.0000 30925.8024 -117594.8942 300.6824 -148520.6966 -117540.6178 300.1667 -15.1441 -32.1758 496964.4622 -10.6938 -10.6858
ENERGY: 37000 1589.8216 2413.9210 3216.8832 0.0000 -175877.9076 20060.2220 153.9623 0.0000 30839.0087 -117604.0888 299.8386 -148443.0975 -117556.7883 299.3751 -110.2771 2.1224 498222.0116 12.7024 12.6742
ENERGY: 38000 1649.0072 2368.0226 3202.6037 0.0000 -176086.6210 20253.0657 160.5532 0.0000 30775.9906 -117677.3779 299.2259 -148453.3685 -117624.7684 299.1184 -37.8240 54.6720 499089.1211 10.9620 10.8422
ENERGY: 39000 1658.3506 2452.8269 3237.8977 0.0000 -175774.0651 20002.9815 165.3637 0.0000 30979.8099 -117276.8349 301.2075 -148256.6447 -117242.3306 300.2173 2.9667 -31.5302 498836.8266 0.5489 0.3318
ENERGY: 40000 1624.2364 2394.3100 3235.2726 0.0000 -175862.5157 20039.8446 167.4458 0.0000 30855.7598 -117545.6464 300.0014 -148401.4062 -117494.7467 299.5605 -94.1401 -125.4469 497708.8969 -3.1643 -3.4400
TCL: Setting parameter constraintScaling to 0.0390625
TCL: Running for 5000 steps
ETITLE: TS BOND ANGLE DIHED IMPRP ELECT VDW BOUNDARY MISC KINETIC TOTAL TEMP POTENTIAL TOTAL3 TEMPAVG PRESSURE GPRESSURE VOLUME PRESSAVG GPRESSAVG
ENERGY: 40000 1624.2364 2394.3100 3235.2726 0.0000 -175862.5157 20039.8446 83.7229 0.0000 30853.7204 -117631.4087 299.9816 -148485.1291 -117590.5549 299.9816 -90.6794 -122.7064 497708.8969 -90.6794 -122.7064
ENERGY: 41000 1610.8114 2401.0816 3192.0038 0.0000 -176289.8236 20224.1489 109.2624 0.0000 30736.7240 -118015.7916 298.8441 -148752.5155 -117966.1739 299.1986 -17.7108 50.5857 496922.0812 -4.3595 -4.4479
ENERGY: 42000 1627.4161 2355.9044 3221.2280 0.0000 -175960.5334 20135.8290 119.0881 0.0000 30691.8152 -117809.2527 298.4075 -148501.0679 -117763.4631 299.2209 11.9751 20.5749 496360.3088 0.8703 1.4543
ENERGY: 43000 1669.6180 2373.6780 3234.6608 0.0000 -176187.0319 20137.8660 118.3357 0.0000 30618.0721 -118034.8014 297.6905 -148652.8735 -117986.4513 298.3423 -16.3094 44.2762 495333.2183 2.8073 2.1852
ENERGY: 44000 1683.8018 2443.4198 3174.1766 0.0000 -175835.2542 20152.4931 123.1548 0.0000 30550.5998 -117707.6083 297.0345 -148258.2081 -117662.6563 299.0023 -84.1181 46.4760 497401.2555 10.1273 10.3776
ENERGY: 45000 1602.6175 2397.9837 3218.5875 0.0000 -175783.2073 19962.7987 122.2782 0.0000 30834.2079 -117644.7338 299.7919 -148478.9418 -117598.6679 298.8166 7.1801 12.4231 497259.9652 8.5416 8.3658
TCL: Setting parameter constraintScaling to 0.01953125
TCL: Running for 5000 steps
ETITLE: TS BOND ANGLE DIHED IMPRP ELECT VDW BOUNDARY MISC KINETIC TOTAL TEMP POTENTIAL TOTAL3 TEMPAVG PRESSURE GPRESSURE VOLUME PRESSAVG GPRESSAVG
ENERGY: 45000 1602.6175 2397.9837 3218.5875 0.0000 -175783.2073 19962.7987 61.1391 0.0000 30832.1511 -117707.9297 299.7719 -148540.0808 -117664.3151 299.7719 -18.0569 -8.5240 497259.9652 -18.0569 -8.5240
ENERGY: 46000 1604.7606 2371.1330 3211.0860 0.0000 -175696.9289 20043.0367 74.5930 0.0000 30740.3981 -117651.9215 298.8798 -148392.3196 -117615.4006 300.2437 45.0687 27.3092 497627.6855 12.7710 12.5990
ENERGY: 47000 1668.4382 2413.5445 3243.3257 0.0000 -176135.3355 20257.9901 85.4819 0.0000 30712.3549 -117754.2003 298.6072 -148466.5551 -117707.1854 299.6365 64.7111 38.6424 497568.5814 6.6420 6.5974
ENERGY: 48000 1713.9457 2367.7267 3213.1564 0.0000 -175556.4977 19824.8245 84.5803 0.0000 30916.6127 -117435.6514 300.5931 -148352.2641 -117382.4251 300.5803 -117.8753 -60.4240 496873.6546 -4.0443 -3.5921
ENERGY: 49000 1591.8318 2472.6509 3179.2091 0.0000 -175921.4354 20125.8925 83.0778 0.0000 31049.6253 -117419.1480 301.8863 -148468.7733 -117379.2319 299.8571 -136.4536 -11.8681 498700.2214 10.7309 10.8893
ENERGY: 50000 1616.5333 2304.9052 3210.5995 0.0000 -175583.3648 19999.5993 89.3421 0.0000 30805.8509 -117556.5345 299.5162 -148362.3854 -117501.7106 300.4433 9.2433 36.6887 497472.5236 3.4883 3.6312
TCL: Setting parameter constraintScaling to 0
TCL: Running for 5000 steps
ETITLE: TS BOND ANGLE DIHED IMPRP ELECT VDW BOUNDARY MISC KINETIC TOTAL TEMP POTENTIAL TOTAL3 TEMPAVG PRESSURE GPRESSURE VOLUME PRESSAVG GPRESSAVG
ENERGY: 50000 1616.5333 2304.9052 3210.5995 0.0000 -175583.3648 19999.5993 0.0000 0.0000 30803.7922 -117647.9353 299.4962 -148451.7275 -117602.7253 299.4962 -10.0434 9.7227 497472.5236 -10.0434 9.7227
ENERGY: 51000 1661.1581 2417.9713 3210.5840 0.0000 -175793.4021 20093.2505 0.0000 0.0000 30693.1992 -117717.2390 298.4209 -148410.4382 -117675.2000 300.1799 -40.0972 -6.5855 497786.2758 -4.4218 -4.5884
ENERGY: 52000 1696.3313 2396.1590 3200.2129 0.0000 -176179.0276 20192.1201 0.0000 0.0000 30557.7714 -118136.4329 297.1042 -148694.2043 -118088.2646 299.2409 49.1104 39.3630 496888.3194 3.5071 3.4175
ENERGY: 53000 1674.1036 2492.5029 3225.2274 0.0000 -176155.1404 20174.0127 0.0000 0.0000 30765.0721 -117824.2217 299.1197 -148589.2938 -117782.2240 299.7029 -18.8489 -11.9912 497080.7430 -7.0805 -6.9560
ENERGY: 54000 1650.4533 2387.6967 3212.4868 0.0000 -176151.0526 19984.8815 0.0000 0.0000 30693.9355 -118221.5989 298.4281 -148915.5343 -118172.0194 298.7751 -44.0023 -18.2082 497332.6715 5.0911 4.3664
ENERGY: 55000 1632.8194 2370.1851 3255.3356 0.0000 -176047.3578 20048.5699 0.0000 0.0000 30711.5760 -118028.8718 298.5996 -148740.4479 -117984.8081 299.3653 -20.6770 37.7607 497344.5559 -1.9301 -2.5794
