Info: SIMULATION PARAMETERS:
Info: TIMESTEP               1
Info: NUMBER OF STEPS        0
Info: STEPS PER CYCLE        10
Info: PERIODIC CELL BASIS 1  72.449 0 0
Info: PERIODIC CELL BASIS 2  0 93.247 0
Info: PERIODIC CELL BASIS 3  0 0 79.185
Info: PERIODIC CELL CENTER   -0.248 -0.156 -0.047
Info: WRAPPING WATERS AROUND PERIODIC BOUNDARIES ON OUTPUT.
Info: WRAPPING ALL CLUSTERS AROUND PERIODIC BOUNDARIES ON OUTPUT.
Info: FIRST LDB TIMESTEP     50
Info: LAST LDB TIMESTEP     -1
Info: HOM BACKGROUND SCALING 1
Info: PME BACKGROUND SCALING 1
Info: MIN ATOMS PER PATCH    40
Info: VELOCITY FILE          ../replicas/rep37/equilibration/eq1.vel
Info: CENTER OF MASS MOVING INITIALLY? NO
Info: DIELECTRIC             1
Info: EXCLUDE                SCALED ONE-FOUR
Info: 1-4 ELECTROSTATICS SCALED BY 0.833333
Info: MODIFIED 1-4 VDW PARAMETERS WILL BE USED
Info: DCD FILENAME           ../replicas/rep37/equilibration/eq2.dcd
Info: DCD FREQUENCY          5000
Info: DCD FIRST STEP         5000
Info: DCD FILE WILL CONTAIN UNIT CELL DATA
Info: XST FILENAME           ../replicas/rep37/equilibration/eq2.xst
Info: XST FREQUENCY          5000
Info: NO VELOCITY DCD OUTPUT
Info: NO FORCE DCD OUTPUT
Info: OUTPUT FILENAME        ../replicas/rep37/equilibration/eq2
Info: RESTART FILENAME       ../replicas/rep37/equilibration/eq2.restart
Info: RESTART FREQUENCY      5000
Info: BINARY RESTART FILES WILL BE USED
Info: SWITCHING ACTIVE
Info: SWITCHING ON           10
Info: SWITCHING OFF          12
Info: PAIRLIST DISTANCE      13.5
Info: PAIRLIST SHRINK RATE   0.01
Info: PAIRLIST GROW RATE     0.01
Info: PAIRLIST TRIGGER       0.3
Info: PAIRLISTS PER CYCLE    2
Info: PAIRLISTS ENABLED
Info: MARGIN                 0.48
Info: HYDROGEN GROUP CUTOFF  2.5
Info: PATCH DIMENSION        16.48
Info: ENERGY OUTPUT STEPS    500
Info: CROSSTERM ENERGY INCLUDED IN DIHEDRAL
Info: TIMING OUTPUT STEPS    5000
Info: PRESSURE OUTPUT STEPS  500
Info: HARMONIC CONSTRAINTS ACTIVE
Info: HARMONIC CONS EXP      2
Info: HARMONIC CONS SCALING  10
Info: LANGEVIN DYNAMICS ACTIVE
Info: LANGEVIN TEMPERATURE   300
Info: LANGEVIN USING BBK INTEGRATOR
Info: LANGEVIN DAMPING COEFFICIENT IS 5 INVERSE PS
Info: LANGEVIN DYNAMICS NOT APPLIED TO HYDROGENS
Info: BERENDSEN PRESSURE COUPLING ACTIVE
Info:     TARGET PRESSURE IS 1 BAR
Info:     COMPRESSIBILITY ESTIMATE IS 4.57e-05 BAR^(-1)
Info:     RELAXATION TIME IS 100 FS
Info:     APPLIED EVERY 2 STEPS
Info:     PRESSURE CONTROL IS GROUP-BASED
Info:       CELL FLUCTUATION IS ISOTROPIC
Info: PARTICLE MESH EWALD (PME) ACTIVE
Info: PME TOLERANCE               1e-06
Info: PME EWALD COEFFICIENT       0.257952
Info: PME INTERPOLATION ORDER     4
Info: PME GRID DIMENSIONS         80 96 80
Info: PME MAXIMUM GRID SPACING    1
Info: FULL ELECTROSTATIC EVALUATION FREQUENCY      2
Info: USING VERLET I (r-RESPA) MTS SCHEME.
Info: C1 SPLITTING OF LONG RANGE ELECTROSTATICS
Info: PLACING ATOMS IN PATCHES BY HYDROGEN GROUPS
Info: RIGID BONDS TO HYDROGEN : WATER
Info:         ERROR TOLERANCE : 1e-05
Info:          MAX ITERATIONS : 100
Info: RIGID WATER USING SETTLE ALGORITHM
Info: RANDOM NUMBER SEED     1503702119
Info: USE HYDROGEN BONDS?    NO
Info: Using AMBER format force field!
Info: AMBER PARM FILE        ../build/complex.top
Info: COORDINATE PDB         ../replicas/rep37/equilibration/eq1.coor
Info: Exclusions in PARM file will be ignored!
Info: SCNB (VDW SCALING)     2
Info: USING ARITHMETIC MEAN TO COMBINE L-J SIGMA PARAMETERS
Info: SUMMARY OF PARAMETERS:
Info: 71 BONDS
Info: 145 ANGLES
Info: 76 DIHEDRAL
Info: 0 IMPROPER
Info: 0 CROSSTERM
Info: 0 VDW
Info: 190 VDW_PAIRS
Info: 0 NBTHOLE_PAIRS
Info: STRUCTURE SUMMARY:
Info: 49394 ATOMS
Info: 49448 BONDS
Info: 8698 ANGLES
Info: 18780 DIHEDRALS
Info: 0 IMPROPERS
Info: 0 CROSSTERMS
Info: 0 EXCLUSIONS
Info: 2336 CONSTRAINTS
Info: 44667 RIGID BONDS
Info: 103515 DEGREES OF FREEDOM
Info: 17225 HYDROGEN GROUPS
Info: 4 ATOMS IN LARGEST HYDROGEN GROUP
Info: 17225 MIGRATION GROUPS
Info: 4 ATOMS IN LARGEST MIGRATION GROUP
Info: TOTAL MASS = 301478 amu
Info: TOTAL CHARGE = 1.00115e-05 e
Info: MASS DENSITY = 0.935846 g/cm^3
Info: ATOM DENSITY = 0.0923345 atoms/A^3
Info: ADDED 70656 IMPLICIT EXCLUSIONS
Info: NONBONDED TABLE R-SQUARED SPACING: 0.0625
Info: NONBONDED TABLE SIZE: 769 POINTS
Info: REMOVING COM VELOCITY 0.0155584 0.028914 0.00675046
TCL: Running for 5000 steps
ETITLE: TS BOND ANGLE DIHED IMPRP ELECT VDW BOUNDARY MISC KINETIC TOTAL TEMP POTENTIAL TOTAL3 TEMPAVG PRESSURE GPRESSURE VOLUME PRESSAVG GPRESSAVG
ENERGY: 0 392.0404 1207.6262 2925.6977 0.0000 -212921.6350 29697.9810 0.0000 0.0000 10033.0491 -168665.2406 97.5484 -178698.2898 -168655.5760 97.5484 -2284.2258 -2384.8685 534946.2959 -2284.2258 -2384.8685
ENERGY: 1000 1195.5114 2008.2505 3121.9876 0.0000 -193578.3656 26341.5150 772.0731 0.0000 24263.9796 -135875.0484 235.9115 -160139.0280 -135852.5811 218.1557 -62.1305 -47.7794 522889.5417 -7.9155 -7.8530
ENERGY: 2000 1468.9170 2171.9015 3169.9361 0.0000 -184200.3118 23269.9141 807.4839 0.0000 27655.0064 -125657.1528 268.8815 -153312.1592 -125621.5610 263.3818 7.4696 -16.1929 516862.4749 -22.1665 -22.2817
ENERGY: 3000 1586.1817 2246.3375 3162.6777 0.0000 -178943.8096 21510.3095 836.5656 0.0000 29406.8058 -120194.9317 285.9137 -149601.7375 -120152.1014 283.5714 59.1768 -18.4774 511710.2532 -25.6459 -26.1585
ENERGY: 4000 1535.9747 2199.4962 3172.5327 0.0000 -176788.5095 20665.2933 839.7700 0.0000 30329.8996 -118045.5430 294.8887 -148375.4426 -118002.7125 293.8477 -68.5822 -17.3920 507312.6835 -7.2650 -7.0999
ENERGY: 5000 1565.5021 2211.4982 3187.0365 0.0000 -175379.0399 20183.4806 828.1649 0.0000 30695.3568 -116708.0008 298.4419 -147403.3576 -116655.0703 297.7964 -46.5795 3.8754 506933.2814 -2.7624 -3.1925
TCL: Setting parameter constraintScaling to 5.0
TCL: Running for 5000 steps
ETITLE: TS BOND ANGLE DIHED IMPRP ELECT VDW BOUNDARY MISC KINETIC TOTAL TEMP POTENTIAL TOTAL3 TEMPAVG PRESSURE GPRESSURE VOLUME PRESSAVG GPRESSAVG
ENERGY: 5000 1565.5021 2211.4982 3187.0365 0.0000 -175379.0399 20183.4806 414.0824 0.0000 30693.3394 -117124.1007 298.4223 -147817.4401 -117079.4312 298.4223 -136.9387 -88.1277 506933.2814 -136.9387 -88.1277
ENERGY: 6000 1561.2180 2345.6450 3154.3684 0.0000 -175394.9546 19944.1868 639.4723 0.0000 30853.2449 -116896.8193 299.9770 -147750.0642 -116841.6472 298.7677 -3.7650 18.8207 503985.9429 -15.6535 -16.2492
ENERGY: 7000 1571.7533 2338.7304 3172.5255 0.0000 -175465.9507 20086.8181 639.1410 0.0000 30739.8160 -116917.1664 298.8742 -147656.9824 -116872.0079 299.5479 -69.5192 -13.9560 503744.6979 4.3618 4.3273
ENERGY: 8000 1534.0510 2240.6382 3149.9285 0.0000 -175642.9443 20189.3022 640.5586 0.0000 30750.8693 -117137.5965 298.9816 -147888.4658 -117091.2160 299.3569 -20.3480 -5.6283 501988.5472 -6.9838 -7.5589
ENERGY: 9000 1579.4071 2337.9518 3177.9387 0.0000 -175451.5924 19946.6183 664.5653 0.0000 30912.0556 -116833.0556 300.5488 -147745.1111 -116796.3705 299.6551 44.9995 28.5560 499934.5103 -16.0181 -15.9704
ENERGY: 10000 1549.3070 2288.4710 3148.9131 0.0000 -176172.5487 20324.8839 634.9874 0.0000 31040.3258 -117185.6603 301.7959 -148225.9861 -117137.4819 298.6734 20.0771 42.8459 500621.7164 6.2341 6.3949
TCL: Setting parameter constraintScaling to 2.5
TCL: Running for 5000 steps
ETITLE: TS BOND ANGLE DIHED IMPRP ELECT VDW BOUNDARY MISC KINETIC TOTAL TEMP POTENTIAL TOTAL3 TEMPAVG PRESSURE GPRESSURE VOLUME PRESSAVG GPRESSAVG
ENERGY: 10000 1549.3070 2288.4710 3148.9131 0.0000 -176172.5487 20324.8839 317.4937 0.0000 31038.2944 -117505.1854 301.7762 -148543.4799 -117463.4746 301.7762 45.6152 74.1621 500621.7164 45.6152 74.1621
ENERGY: 11000 1581.7957 2303.0060 3137.5560 0.0000 -175584.1149 20291.7842 517.9452 0.0000 30841.4977 -116910.5302 299.8628 -147752.0279 -116862.9074 298.8619 -162.8779 -47.1668 500088.1228 -4.9854 -4.5476
ENERGY: 12000 1636.7378 2363.1135 3168.9334 0.0000 -175590.5664 19981.4024 551.2804 0.0000 30887.3253 -117001.7737 300.3083 -147889.0991 -116972.1542 298.7894 5.2990 -66.4864 500649.1018 -3.0255 -3.3907
ENERGY: 13000 1584.9381 2305.2864 3180.6040 0.0000 -175667.2158 20274.3481 477.9464 0.0000 30553.7234 -117290.3694 297.0648 -147844.0927 -117240.6440 298.7539 29.8829 34.0079 500403.0193 9.9396 9.7358
ENERGY: 14000 1630.3658 2330.1602 3194.8023 0.0000 -175714.4992 20021.4167 500.9483 0.0000 30608.9851 -117427.8209 297.6021 -148036.8059 -117374.7616 300.1750 -37.2647 -29.7511 499367.2746 -0.9675 -0.8721
ENERGY: 15000 1580.3941 2350.6847 3208.8182 0.0000 -175412.0428 19958.8755 516.6820 0.0000 30860.9607 -116935.6278 300.0520 -147796.5885 -116904.4883 299.7399 53.3443 59.5313 499936.7529 1.4996 1.1971
TCL: Setting parameter constraintScaling to 1.25
TCL: Running for 5000 steps
ETITLE: TS BOND ANGLE DIHED IMPRP ELECT VDW BOUNDARY MISC KINETIC TOTAL TEMP POTENTIAL TOTAL3 TEMPAVG PRESSURE GPRESSURE VOLUME PRESSAVG GPRESSAVG
ENERGY: 15000 1580.3941 2350.6847 3208.8182 0.0000 -175412.0428 19958.8755 258.3410 0.0000 30858.9379 -117195.9916 300.0323 -148054.9295 -117152.7018 300.0323 0.2843 4.1541 499936.7529 0.2843 4.1541
ENERGY: 16000 1640.9408 2378.0509 3199.6217 0.0000 -175429.6668 19980.2710 409.9345 0.0000 31005.0988 -116815.7491 301.4534 -147820.8479 -116770.6273 300.6254 -38.6603 4.7998 500846.0375 -1.0689 -1.3121
ENERGY: 17000 1664.1671 2408.0808 3203.4208 0.0000 -175376.1043 19889.1854 415.1303 0.0000 30891.1921 -116904.9278 300.3459 -147796.1199 -116862.2137 300.3082 -110.8576 -24.1179 500651.0761 14.3555 14.3175
ENERGY: 18000 1620.1306 2366.8955 3160.8050 0.0000 -175351.1128 19871.5713 404.6678 0.0000 30608.8578 -117318.1848 297.6009 -147927.0426 -117270.3342 299.5864 -82.6741 -60.1072 500019.1826 9.2725 9.1553
ENERGY: 19000 1577.7647 2387.7534 3193.0038 0.0000 -175367.3602 19836.3494 377.8464 0.0000 30696.6605 -117297.9820 298.4546 -147994.6425 -117260.1296 299.2746 -0.5860 54.2168 498994.7921 6.9543 7.1048
ENERGY: 20000 1659.8484 2377.8171 3189.6288 0.0000 -175236.4982 19958.6208 409.2563 0.0000 30665.8921 -116975.4347 298.1554 -147641.3268 -116937.8057 299.8368 -102.2093 -43.8521 499737.1099 1.0327 0.9483
TCL: Setting parameter constraintScaling to 0.625
TCL: Running for 5000 steps
ETITLE: TS BOND ANGLE DIHED IMPRP ELECT VDW BOUNDARY MISC KINETIC TOTAL TEMP POTENTIAL TOTAL3 TEMPAVG PRESSURE GPRESSURE VOLUME PRESSAVG GPRESSAVG
ENERGY: 20000 1659.8484 2377.8171 3189.6288 0.0000 -175236.4982 19958.6208 204.6282 0.0000 30663.8358 -117182.1192 298.1354 -147845.9550 -117142.7653 298.1354 -169.3828 -110.7063 499737.1099 -169.3828 -110.7063
ENERGY: 21000 1614.8614 2372.3292 3200.0271 0.0000 -175885.8346 20131.9185 314.8805 0.0000 30804.4719 -117447.3461 299.5028 -148251.8180 -117401.1089 299.6082 -54.3042 77.8886 499120.7120 12.4044 12.5071
ENERGY: 22000 1621.9686 2426.9365 3209.4782 0.0000 -176078.0690 20255.4364 334.0100 0.0000 30570.4117 -117659.8277 297.2271 -148230.2394 -117625.8128 298.6723 -78.6296 15.6317 498359.7006 4.6241 4.9854
ENERGY: 23000 1609.8541 2367.6146 3203.8647 0.0000 -175503.6037 19871.5715 318.2764 0.0000 30876.2232 -117256.1992 300.2004 -148132.4224 -117214.9260 299.2971 146.9616 149.8207 499708.7368 8.0468 7.4349
ENERGY: 24000 1552.8375 2319.9507 3209.1360 0.0000 -175746.4204 20017.4046 295.9492 0.0000 30721.5012 -117629.6412 298.6961 -148351.1424 -117586.7081 299.1001 -89.3371 0.7666 497596.3401 -6.6077 -6.6129
ENERGY: 25000 1633.4680 2451.9656 3205.5279 0.0000 -175761.7540 19970.2234 314.4854 0.0000 30627.1918 -117558.8920 297.7791 -148186.0838 -117512.1982 298.4415 -120.3193 -56.9682 497131.8156 -5.3251 -4.9624
TCL: Setting parameter constraintScaling to 0.3125
TCL: Running for 5000 steps
ETITLE: TS BOND ANGLE DIHED IMPRP ELECT VDW BOUNDARY MISC KINETIC TOTAL TEMP POTENTIAL TOTAL3 TEMPAVG PRESSURE GPRESSURE VOLUME PRESSAVG GPRESSAVG
ENERGY: 25000 1633.4680 2451.9656 3205.5279 0.0000 -175761.7540 19970.2234 157.2427 0.0000 30625.1402 -117718.1863 297.7592 -148343.3264 -117676.2476 297.7592 -153.6403 -92.0425 497131.8156 -153.6403 -92.0425
ENERGY: 26000 1629.0909 2405.9798 3254.0093 0.0000 -176187.4860 20232.6047 248.1995 0.0000 30748.5279 -117669.0739 298.9589 -148417.6018 -117631.6028 298.7936 -2.6123 -7.2768 500005.8591 16.2617 15.9285
ENERGY: 27000 1660.1506 2393.7353 3224.4168 0.0000 -175596.6303 19947.2110 253.3812 0.0000 30899.2344 -117218.5010 300.4241 -148117.7354 -117171.5572 299.5789 -215.9597 -116.7664 499994.0136 13.6824 13.5660
ENERGY: 28000 1611.6035 2431.0629 3207.8327 0.0000 -175655.3714 20080.5808 237.1059 0.0000 30811.5175 -117275.6680 299.5713 -148087.1855 -117225.1103 299.8658 39.9972 65.0162 498513.1910 0.9254 1.0629
ENERGY: 29000 1629.0652 2402.0798 3210.5658 0.0000 -175921.2713 20158.6023 228.1839 0.0000 30720.9648 -117571.8097 298.6909 -148292.7744 -117537.1204 299.4136 -161.0568 -31.3796 500208.5293 13.0114 13.1729
ENERGY: 30000 1643.0814 2443.1526 3188.3491 0.0000 -176095.3616 20219.1027 257.4297 0.0000 30785.6532 -117558.5929 299.3198 -148344.2462 -117521.2638 300.0679 52.3788 60.0985 498998.2405 8.3367 7.5896
TCL: Setting parameter constraintScaling to 0.15625
TCL: Running for 5000 steps
ETITLE: TS BOND ANGLE DIHED IMPRP ELECT VDW BOUNDARY MISC KINETIC TOTAL TEMP POTENTIAL TOTAL3 TEMPAVG PRESSURE GPRESSURE VOLUME PRESSAVG GPRESSAVG
ENERGY: 30000 1643.0814 2443.1526 3188.3491 0.0000 -176095.3616 20219.1027 128.7148 0.0000 30783.6033 -117689.3576 299.2999 -148472.9610 -117643.9620 299.2999 -20.1403 -10.4940 498998.2405 -20.1403 -10.4940
ENERGY: 31000 1684.7883 2398.2213 3216.3265 0.0000 -176368.1044 20352.5151 192.3005 0.0000 31037.0938 -117486.8588 301.7645 -148523.9526 -117449.4115 299.6744 -105.6497 -33.0393 496824.4184 -6.8324 -7.0959
ENERGY: 32000 1652.1770 2409.3367 3218.5907 0.0000 -175753.7259 19970.0817 200.6819 0.0000 30675.0889 -117627.7691 298.2448 -148302.8580 -117587.2503 300.0487 -121.2811 -135.8846 496817.8739 5.6882 5.8963
ENERGY: 33000 1660.2778 2460.1249 3207.6595 0.0000 -175849.4933 20034.5589 196.2406 0.0000 30723.6965 -117566.9351 298.7174 -148290.6316 -117516.9804 299.8410 47.5997 101.9334 496540.6170 4.2544 3.9340
ENERGY: 34000 1680.0054 2382.5857 3207.2324 0.0000 -175899.5680 19889.9291 199.1552 0.0000 30782.7758 -117757.8844 299.2918 -148540.6603 -117711.8345 299.2108 -39.2569 -21.1851 495908.1317 -3.3278 -3.5497
ENERGY: 35000 1554.6567 2397.1034 3221.1400 0.0000 -175691.8856 19888.1064 200.1304 0.0000 30839.2767 -117591.4721 299.8412 -148430.7488 -117543.8016 299.8644 -2.4234 -17.2935 497793.1661 5.9149 6.2537
TCL: Setting parameter constraintScaling to 0.078125
TCL: Running for 5000 steps
ETITLE: TS BOND ANGLE DIHED IMPRP ELECT VDW BOUNDARY MISC KINETIC TOTAL TEMP POTENTIAL TOTAL3 TEMPAVG PRESSURE GPRESSURE VOLUME PRESSAVG GPRESSAVG
ENERGY: 35000 1554.6567 2397.1034 3221.1400 0.0000 -175691.8856 19888.1064 100.0652 0.0000 30837.2335 -117693.5805 299.8213 -148530.8140 -117648.8931 299.8213 -28.1906 -41.8671 497793.1661 -28.1906 -41.8671
ENERGY: 36000 1647.5348 2388.2577 3206.5648 0.0000 -175995.1217 20130.8185 141.3317 0.0000 30707.8774 -117772.7368 298.5636 -148480.6142 -117728.9315 298.4986 -51.7724 36.6692 498367.3706 2.3207 2.3981
ENERGY: 37000 1583.6192 2387.6331 3199.3390 0.0000 -175864.7923 20083.8365 163.5354 0.0000 31014.0834 -117432.7457 301.5408 -148446.8291 -117400.2192 298.8918 -52.2998 -62.0650 497574.4911 -4.1927 -4.3334
ENERGY: 38000 1588.0293 2399.1091 3216.4470 0.0000 -175869.0267 20080.2146 163.0828 0.0000 30870.4234 -117551.7203 300.1440 -148422.1438 -117507.2377 299.6167 -5.4200 31.2439 497318.7299 -1.8208 -1.8866
ENERGY: 39000 1677.6471 2328.1007 3248.5007 0.0000 -175559.0324 20021.9115 167.8611 0.0000 30784.5276 -117330.4837 299.3089 -148115.0113 -117298.5870 299.1376 -110.7637 -84.4841 498385.4239 10.9379 11.3195
ENERGY: 40000 1571.8815 2387.2613 3206.7031 0.0000 -176201.3984 20332.0760 165.5096 0.0000 30833.5557 -117704.4112 299.7856 -148537.9669 -117657.8231 299.3282 54.7761 39.5367 498054.9370 0.7354 0.5751
TCL: Setting parameter constraintScaling to 0.0390625
TCL: Running for 5000 steps
ETITLE: TS BOND ANGLE DIHED IMPRP ELECT VDW BOUNDARY MISC KINETIC TOTAL TEMP POTENTIAL TOTAL3 TEMPAVG PRESSURE GPRESSURE VOLUME PRESSAVG GPRESSAVG
ENERGY: 40000 1571.8815 2387.2613 3206.7031 0.0000 -176201.3984 20332.0760 82.7548 0.0000 30831.5135 -117789.2082 299.7657 -148620.7217 -117746.1231 299.7657 45.1975 27.8253 498054.9370 45.1975 27.8253
ENERGY: 41000 1612.7110 2404.7219 3229.1876 0.0000 -176053.8119 20124.1807 120.5476 0.0000 30825.4468 -117737.0163 299.7067 -148562.4631 -117692.2364 299.1356 -62.4459 -37.2373 498101.9383 5.6233 5.7750
ENERGY: 42000 1585.7597 2309.5585 3239.4261 0.0000 -175896.3029 19904.1868 122.7152 0.0000 30874.8626 -117859.7940 300.1872 -148734.6566 -117809.2656 298.7225 -30.4505 -8.6559 496007.0654 -3.6232 -3.6858
ENERGY: 43000 1619.1460 2443.4556 3232.4671 0.0000 -175591.9925 19980.6841 121.4550 0.0000 30642.5674 -117552.2172 297.9286 -148194.7846 -117514.5861 299.6324 71.7945 124.0316 496481.3329 13.4750 14.0456
ENERGY: 44000 1606.1629 2406.3074 3203.7544 0.0000 -176033.8115 20165.2351 131.4083 0.0000 30912.9684 -117607.9750 300.5577 -148520.9434 -117562.9377 299.5868 -6.7115 -33.8223 497206.0617 -9.9887 -9.7284
ENERGY: 45000 1635.8158 2396.8697 3222.2797 0.0000 -176040.9560 20269.4886 128.5264 0.0000 30758.0388 -117629.9369 299.0513 -148387.9757 -117590.4723 299.4833 60.6793 84.5087 498119.3465 4.7480 5.5652
TCL: Setting parameter constraintScaling to 0.01953125
TCL: Running for 5000 steps
ETITLE: TS BOND ANGLE DIHED IMPRP ELECT VDW BOUNDARY MISC KINETIC TOTAL TEMP POTENTIAL TOTAL3 TEMPAVG PRESSURE GPRESSURE VOLUME PRESSAVG GPRESSAVG
ENERGY: 45000 1635.8158 2396.8697 3222.2797 0.0000 -176040.9560 20269.4886 64.2632 0.0000 30755.9979 -117696.2411 299.0315 -148452.2390 -117653.0617 299.0315 45.4901 71.3699 498119.3465 45.4901 71.3699
ENERGY: 46000 1558.5875 2444.4854 3212.2378 0.0000 -175687.4778 19942.0943 77.5493 0.0000 30856.1593 -117596.3642 300.0053 -148452.5235 -117555.8012 300.1017 -3.2907 80.2470 498238.8928 -4.9541 -5.2705
ENERGY: 47000 1593.5888 2438.7135 3198.1035 0.0000 -175770.4340 19937.7852 84.7714 0.0000 30963.7863 -117553.6853 301.0518 -148517.4716 -117500.7805 299.9510 -121.4272 -24.8386 497433.3838 1.1198 0.7750
ENERGY: 48000 1554.9998 2374.3905 3228.7235 0.0000 -175956.2518 20027.2443 82.3411 0.0000 30905.9897 -117782.5629 300.4898 -148688.5526 -117739.7590 300.4010 -94.1977 -14.8660 497680.2507 7.3684 6.9181
ENERGY: 49000 1678.3110 2466.6390 3229.0294 0.0000 -175779.1994 20034.2755 83.5736 0.0000 30743.5004 -117543.8704 298.9100 -148287.3708 -117502.6147 299.3088 -150.0512 -42.6777 496443.7705 5.6488 5.3339
ENERGY: 50000 1631.0218 2428.3966 3201.6647 0.0000 -175783.7587 19819.5731 91.5679 0.0000 30859.3018 -117752.2328 300.0359 -148611.5346 -117711.7593 300.3451 -32.0064 -14.1411 496054.8457 -14.2831 -14.8251
TCL: Setting parameter constraintScaling to 0
TCL: Running for 5000 steps
ETITLE: TS BOND ANGLE DIHED IMPRP ELECT VDW BOUNDARY MISC KINETIC TOTAL TEMP POTENTIAL TOTAL3 TEMPAVG PRESSURE GPRESSURE VOLUME PRESSAVG GPRESSAVG
ENERGY: 50000 1631.0218 2428.3966 3201.6647 0.0000 -175783.7587 19819.5731 0.0000 0.0000 30857.2659 -117845.8366 300.0161 -148703.1025 -117805.5027 300.0161 -62.9683 -49.0422 496054.8457 -62.9683 -49.0422
ENERGY: 51000 1652.2409 2391.0612 3185.9686 0.0000 -175981.8084 20096.9456 0.0000 0.0000 30875.9272 -117779.6648 300.1975 -148655.5920 -117734.8824 300.3725 -15.8761 -91.9445 496429.0064 1.5062 0.8497
ENERGY: 52000 1630.7350 2370.6569 3202.8901 0.0000 -176058.5002 20202.2374 0.0000 0.0000 30880.8304 -117771.1503 300.2452 -148651.9808 -117744.9226 300.0198 -37.7884 -25.1148 497977.4700 13.5787 12.9699
ENERGY: 53000 1644.5023 2364.4281 3216.0572 0.0000 -175808.0528 20063.6743 0.0000 0.0000 30953.8511 -117565.5397 300.9552 -148519.3908 -117520.1760 300.5305 1.5165 -54.8030 497137.9029 4.5142 4.6374
ENERGY: 54000 1627.1512 2377.8037 3198.9109 0.0000 -176291.7982 20285.9351 0.0000 0.0000 30826.6617 -117975.3356 299.7185 -148801.9973 -117931.3984 299.6485 -31.2167 26.9450 497393.5568 11.5214 11.6282
ENERGY: 55000 1703.3895 2449.7405 3178.3804 0.0000 -176107.8628 20092.8709 0.0000 0.0000 30873.1713 -117810.3103 300.1707 -148683.4816 -117765.0261 299.3530 -53.5573 8.3332 496220.9616 -8.9982 -9.4707
