Info: SIMULATION PARAMETERS:
Info: TIMESTEP               1
Info: NUMBER OF STEPS        0
Info: STEPS PER CYCLE        10
Info: PERIODIC CELL BASIS 1  72.449 0 0
Info: PERIODIC CELL BASIS 2  0 93.247 0
Info: PERIODIC CELL BASIS 3  0 0 79.185
Info: PERIODIC CELL CENTER   -0.248 -0.156 -0.047
Info: WRAPPING WATERS AROUND PERIODIC BOUNDARIES ON OUTPUT.
Info: WRAPPING ALL CLUSTERS AROUND PERIODIC BOUNDARIES ON OUTPUT.
Info: FIRST LDB TIMESTEP     50
Info: LAST LDB TIMESTEP     -1
Info: HOM BACKGROUND SCALING 1
Info: PME BACKGROUND SCALING 1
Info: MIN ATOMS PER PATCH    40
Info: VELOCITY FILE          ../replicas/rep51/equilibration/eq1.vel
Info: CENTER OF MASS MOVING INITIALLY? NO
Info: DIELECTRIC             1
Info: EXCLUDE                SCALED ONE-FOUR
Info: 1-4 ELECTROSTATICS SCALED BY 0.833333
Info: MODIFIED 1-4 VDW PARAMETERS WILL BE USED
Info: DCD FILENAME           ../replicas/rep51/equilibration/eq2.dcd
Info: DCD FREQUENCY          5000
Info: DCD FIRST STEP         5000
Info: DCD FILE WILL CONTAIN UNIT CELL DATA
Info: XST FILENAME           ../replicas/rep51/equilibration/eq2.xst
Info: XST FREQUENCY          5000
Info: NO VELOCITY DCD OUTPUT
Info: NO FORCE DCD OUTPUT
Info: OUTPUT FILENAME        ../replicas/rep51/equilibration/eq2
Info: RESTART FILENAME       ../replicas/rep51/equilibration/eq2.restart
Info: RESTART FREQUENCY      5000
Info: BINARY RESTART FILES WILL BE USED
Info: SWITCHING ACTIVE
Info: SWITCHING ON           10
Info: SWITCHING OFF          12
Info: PAIRLIST DISTANCE      13.5
Info: PAIRLIST SHRINK RATE   0.01
Info: PAIRLIST GROW RATE     0.01
Info: PAIRLIST TRIGGER       0.3
Info: PAIRLISTS PER CYCLE    2
Info: PAIRLISTS ENABLED
Info: MARGIN                 0.48
Info: HYDROGEN GROUP CUTOFF  2.5
Info: PATCH DIMENSION        16.48
Info: ENERGY OUTPUT STEPS    500
Info: CROSSTERM ENERGY INCLUDED IN DIHEDRAL
Info: TIMING OUTPUT STEPS    5000
Info: PRESSURE OUTPUT STEPS  500
Info: HARMONIC CONSTRAINTS ACTIVE
Info: HARMONIC CONS EXP      2
Info: HARMONIC CONS SCALING  10
Info: LANGEVIN DYNAMICS ACTIVE
Info: LANGEVIN TEMPERATURE   300
Info: LANGEVIN USING BBK INTEGRATOR
Info: LANGEVIN DAMPING COEFFICIENT IS 5 INVERSE PS
Info: LANGEVIN DYNAMICS NOT APPLIED TO HYDROGENS
Info: BERENDSEN PRESSURE COUPLING ACTIVE
Info:     TARGET PRESSURE IS 1 BAR
Info:     COMPRESSIBILITY ESTIMATE IS 4.57e-05 BAR^(-1)
Info:     RELAXATION TIME IS 100 FS
Info:     APPLIED EVERY 2 STEPS
Info:     PRESSURE CONTROL IS GROUP-BASED
Info:       CELL FLUCTUATION IS ISOTROPIC
Info: PARTICLE MESH EWALD (PME) ACTIVE
Info: PME TOLERANCE               1e-06
Info: PME EWALD COEFFICIENT       0.257952
Info: PME INTERPOLATION ORDER     4
Info: PME GRID DIMENSIONS         80 96 80
Info: PME MAXIMUM GRID SPACING    1
Info: FULL ELECTROSTATIC EVALUATION FREQUENCY      2
Info: USING VERLET I (r-RESPA) MTS SCHEME.
Info: C1 SPLITTING OF LONG RANGE ELECTROSTATICS
Info: PLACING ATOMS IN PATCHES BY HYDROGEN GROUPS
Info: RIGID BONDS TO HYDROGEN : WATER
Info:         ERROR TOLERANCE : 1e-05
Info:          MAX ITERATIONS : 100
Info: RIGID WATER USING SETTLE ALGORITHM
Info: RANDOM NUMBER SEED     1503717247
Info: USE HYDROGEN BONDS?    NO
Info: Using AMBER format force field!
Info: AMBER PARM FILE        ../build/complex.top
Info: COORDINATE PDB         ../replicas/rep51/equilibration/eq1.coor
Info: Exclusions in PARM file will be ignored!
Info: SCNB (VDW SCALING)     2
Info: USING ARITHMETIC MEAN TO COMBINE L-J SIGMA PARAMETERS
Info: SUMMARY OF PARAMETERS:
Info: 71 BONDS
Info: 145 ANGLES
Info: 76 DIHEDRAL
Info: 0 IMPROPER
Info: 0 CROSSTERM
Info: 0 VDW
Info: 190 VDW_PAIRS
Info: 0 NBTHOLE_PAIRS
Info: STRUCTURE SUMMARY:
Info: 49394 ATOMS
Info: 49448 BONDS
Info: 8698 ANGLES
Info: 18780 DIHEDRALS
Info: 0 IMPROPERS
Info: 0 CROSSTERMS
Info: 0 EXCLUSIONS
Info: 2336 CONSTRAINTS
Info: 44667 RIGID BONDS
Info: 103515 DEGREES OF FREEDOM
Info: 17225 HYDROGEN GROUPS
Info: 4 ATOMS IN LARGEST HYDROGEN GROUP
Info: 17225 MIGRATION GROUPS
Info: 4 ATOMS IN LARGEST MIGRATION GROUP
Info: TOTAL MASS = 301478 amu
Info: TOTAL CHARGE = 1.00115e-05 e
Info: MASS DENSITY = 0.935846 g/cm^3
Info: ATOM DENSITY = 0.0923345 atoms/A^3
Info: ADDED 70656 IMPLICIT EXCLUSIONS
Info: NONBONDED TABLE R-SQUARED SPACING: 0.0625
Info: NONBONDED TABLE SIZE: 769 POINTS
Info: REMOVING COM VELOCITY 0.0130154 0.000843624 0.0442324
TCL: Running for 5000 steps
ETITLE: TS BOND ANGLE DIHED IMPRP ELECT VDW BOUNDARY MISC KINETIC TOTAL TEMP POTENTIAL TOTAL3 TEMPAVG PRESSURE GPRESSURE VOLUME PRESSAVG GPRESSAVG
ENERGY: 0 396.2411 1211.0935 2930.5340 0.0000 -212673.2398 29478.1549 0.0000 0.0000 10025.6936 -168631.5227 97.4769 -178657.2163 -168621.8457 97.4769 -2387.1081 -2493.7502 534946.2959 -2387.1081 -2493.7502
ENERGY: 1000 1267.9987 1948.2401 3115.2510 0.0000 -193731.6435 26454.4535 777.5841 0.0000 24071.7017 -136096.4145 234.0420 -160168.1162 -136062.6268 218.2057 -2.4684 -19.7480 522145.3195 -17.3411 -17.6093
ENERGY: 2000 1481.4173 2153.3184 3146.6711 0.0000 -183928.7236 23194.4865 801.6599 0.0000 28019.0086 -125132.1620 272.4205 -153151.1705 -125092.5691 264.6378 -89.2460 -25.9823 515781.8757 -33.0524 -33.1339
ENERGY: 3000 1526.1627 2184.9761 3166.0178 0.0000 -179612.8536 21903.0898 829.3559 0.0000 29614.5553 -120388.6959 287.9336 -150003.2512 -120340.9174 284.8710 61.2835 39.3499 510138.8070 -25.6755 -25.7739
ENERGY: 4000 1510.0509 2224.1939 3134.0641 0.0000 -177488.1759 21121.2621 803.2162 0.0000 30321.3553 -118374.0334 294.8056 -148695.3887 -118325.8982 291.7899 9.2090 30.9218 507040.3151 -13.2479 -13.2733
ENERGY: 5000 1494.0766 2263.3415 3142.9435 0.0000 -175878.3019 20493.5324 815.7467 0.0000 30383.4899 -117285.1714 295.4097 -147668.6613 -117241.5698 296.2881 -99.6845 11.8226 507485.1943 5.2149 5.1647
TCL: Setting parameter constraintScaling to 5.0
TCL: Running for 5000 steps
ETITLE: TS BOND ANGLE DIHED IMPRP ELECT VDW BOUNDARY MISC KINETIC TOTAL TEMP POTENTIAL TOTAL3 TEMPAVG PRESSURE GPRESSURE VOLUME PRESSAVG GPRESSAVG
ENERGY: 5000 1494.0766 2263.3415 3142.9435 0.0000 -175878.3019 20493.5324 407.8733 0.0000 30381.4527 -117695.0819 295.3899 -148076.5346 -117652.0681 295.3899 -205.5233 -84.6820 507485.1943 -205.5233 -84.6820
ENERGY: 6000 1554.3084 2307.6968 3173.2822 0.0000 -176172.9988 20663.7432 655.2842 0.0000 30578.9834 -117239.7007 297.3104 -147818.6841 -117202.2010 297.2871 -84.3100 46.9466 504839.4840 -11.4033 -10.8934
ENERGY: 7000 1656.3755 2256.5353 3161.3272 0.0000 -175772.0337 20324.1088 672.2672 0.0000 30728.8626 -116972.5572 298.7677 -147701.4198 -116920.9375 298.0891 -34.0051 -8.3144 503397.6466 -5.0646 -5.5621
ENERGY: 8000 1551.4553 2277.8676 3154.7344 0.0000 -175244.1236 20026.8161 646.9098 0.0000 30588.4484 -116997.8920 297.4025 -147586.3404 -116955.0110 298.1209 39.0333 -20.5714 503718.8114 -1.0462 -0.8985
ENERGY: 9000 1577.6657 2338.5107 3147.4674 0.0000 -175698.2428 20173.9799 644.8284 0.0000 30985.7076 -116830.0829 301.2649 -147815.7906 -116780.0098 298.8571 -24.5118 -4.4604 501550.9979 -10.9235 -11.0310
ENERGY: 10000 1604.3550 2285.1417 3168.0885 0.0000 -175516.3916 20048.8610 674.1194 0.0000 30744.2173 -116991.6086 298.9169 -147735.8258 -116949.8277 299.3827 -92.3817 10.9394 503581.1052 8.3974 8.6018
TCL: Setting parameter constraintScaling to 2.5
TCL: Running for 5000 steps
ETITLE: TS BOND ANGLE DIHED IMPRP ELECT VDW BOUNDARY MISC KINETIC TOTAL TEMP POTENTIAL TOTAL3 TEMPAVG PRESSURE GPRESSURE VOLUME PRESSAVG GPRESSAVG
ENERGY: 10000 1604.3550 2285.1417 3168.0885 0.0000 -175516.3916 20048.8610 337.0597 0.0000 30742.1720 -117330.7136 298.8971 -148072.8856 -117286.5174 298.8971 -205.4593 -102.0231 503581.1052 -205.4593 -102.0231
ENERGY: 11000 1695.5245 2328.5108 3153.2123 0.0000 -175041.7112 19948.4835 518.4971 0.0000 30798.9949 -116598.4881 299.4495 -147397.4830 -116551.3575 299.9258 -29.8063 -31.1908 503266.7052 -0.0445 0.0122
ENERGY: 12000 1616.2760 2343.5105 3166.8780 0.0000 -175152.2997 19972.8077 515.2585 0.0000 30910.9642 -116626.6048 300.5382 -147537.5690 -116582.5126 300.3951 -158.0870 -31.9689 503148.3735 -3.1876 -3.0906
ENERGY: 13000 1599.5533 2315.0340 3172.8505 0.0000 -175738.5057 20161.2930 507.1021 0.0000 30971.5566 -117011.1163 301.1273 -147982.6728 -116969.0909 300.3111 -88.7374 -26.0078 501776.8937 4.8539 4.6645
ENERGY: 14000 1618.7743 2330.3131 3197.4884 0.0000 -175663.8991 19822.3350 501.7660 0.0000 30799.3146 -117393.9076 299.4526 -148193.2223 -117354.0690 299.4553 -15.5476 30.5740 499732.3281 -3.3491 -3.2638
ENERGY: 15000 1649.5357 2428.8774 3203.4062 0.0000 -175611.2344 19951.1575 536.1398 0.0000 30978.0480 -116864.0697 301.1904 -147842.1178 -116815.2864 300.1406 -39.1942 -53.0877 500718.9457 10.6491 9.6796
TCL: Setting parameter constraintScaling to 1.25
TCL: Running for 5000 steps
ETITLE: TS BOND ANGLE DIHED IMPRP ELECT VDW BOUNDARY MISC KINETIC TOTAL TEMP POTENTIAL TOTAL3 TEMPAVG PRESSURE GPRESSURE VOLUME PRESSAVG GPRESSAVG
ENERGY: 15000 1649.5357 2428.8774 3203.4062 0.0000 -175611.2344 19951.1575 268.0699 0.0000 30976.0237 -117134.1640 301.1707 -148110.1877 -117095.6781 301.1707 -88.9092 -106.5487 500718.9457 -88.9092 -106.5487
ENERGY: 16000 1589.2583 2392.4431 3198.2321 0.0000 -175704.5480 20096.2984 396.0552 0.0000 30854.5012 -117177.7597 299.9892 -148032.2609 -117131.8831 299.0215 -46.5088 -0.7347 498773.6282 -3.4346 -3.7048
ENERGY: 17000 1625.0675 2377.9078 3181.6709 0.0000 -176136.4201 20357.1517 399.8801 0.0000 30919.4540 -117275.2881 300.6207 -148194.7421 -117233.0223 299.2463 -22.1599 1.4564 498456.6945 -3.3095 -3.3958
ENERGY: 18000 1672.9126 2393.4049 3194.7187 0.0000 -175760.2070 20176.9910 407.0154 0.0000 30764.1614 -117151.0030 299.1109 -147915.1644 -117110.1909 299.5501 -127.5506 -57.3819 499700.6604 -1.8974 -1.1765
ENERGY: 19000 1667.6849 2406.1413 3182.1103 0.0000 -175627.3767 20124.6790 405.5150 0.0000 30981.2380 -116860.0082 301.2214 -147841.2462 -116810.8462 299.6782 -19.6091 39.5480 498837.5156 2.0837 1.9378
ENERGY: 20000 1645.8389 2365.2217 3174.0587 0.0000 -176026.6080 20120.1745 419.3173 0.0000 30952.9172 -117349.0797 300.9461 -148301.9970 -117299.7309 299.7805 -101.3039 -51.2468 499905.1297 2.1749 2.6555
TCL: Setting parameter constraintScaling to 0.625
TCL: Running for 5000 steps
ETITLE: TS BOND ANGLE DIHED IMPRP ELECT VDW BOUNDARY MISC KINETIC TOTAL TEMP POTENTIAL TOTAL3 TEMPAVG PRESSURE GPRESSURE VOLUME PRESSAVG GPRESSAVG
ENERGY: 20000 1645.8389 2365.2217 3174.0587 0.0000 -176026.6080 20120.1745 209.6587 0.0000 30950.8661 -117560.7895 300.9261 -148511.6556 -117519.9668 300.9261 -154.3080 -104.2349 499905.1297 -154.3080 -104.2349
ENERGY: 21000 1625.0490 2397.3899 3212.8595 0.0000 -175909.0448 20304.8944 326.5017 0.0000 30712.9671 -117329.3831 298.6131 -148042.3502 -117284.1512 300.5381 36.4921 38.7527 499255.9144 9.1515 8.8368
ENERGY: 22000 1599.1442 2378.2555 3199.6290 0.0000 -175490.9883 19868.5082 329.4366 0.0000 30695.1929 -117420.8218 298.4403 -148116.0148 -117383.0514 299.6365 20.6993 77.8720 498377.2757 6.8176 6.4975
ENERGY: 23000 1634.5538 2361.4924 3223.9359 0.0000 -175504.9653 19887.8313 338.5793 0.0000 31023.9053 -117034.6673 301.6363 -148058.5726 -116988.2521 300.4243 -27.6525 -9.5907 498609.1346 10.6189 10.5705
ENERGY: 24000 1654.8127 2441.9970 3183.2954 0.0000 -176070.5020 20200.8621 332.9975 0.0000 30889.7342 -117366.8031 300.3318 -148256.5374 -117319.7727 299.6027 -18.3001 -20.3736 497947.7835 6.6779 7.0491
ENERGY: 25000 1615.7589 2352.1602 3206.5041 0.0000 -175452.0337 19954.5579 327.5803 0.0000 31067.3258 -116928.1465 302.0584 -147995.4723 -116886.9136 301.0738 -21.1963 -22.3767 498996.4878 -0.2338 0.0387
TCL: Setting parameter constraintScaling to 0.3125
TCL: Running for 5000 steps
ETITLE: TS BOND ANGLE DIHED IMPRP ELECT VDW BOUNDARY MISC KINETIC TOTAL TEMP POTENTIAL TOTAL3 TEMPAVG PRESSURE GPRESSURE VOLUME PRESSAVG GPRESSAVG
ENERGY: 25000 1615.7589 2352.1602 3206.5041 0.0000 -175452.0337 19954.5579 163.7901 0.0000 31065.2593 -117094.0032 302.0383 -148159.2624 -117051.4654 302.0383 -28.0551 -34.7586 498996.4878 -28.0551 -34.7586
ENERGY: 26000 1687.4038 2416.9120 3201.4338 0.0000 -176198.7928 20336.4440 251.9779 0.0000 30726.8650 -117577.7562 298.7482 -148304.6212 -117536.4234 300.0077 -105.8676 -26.5724 497979.1616 -7.2788 -6.7171
ENERGY: 27000 1667.9924 2401.8291 3188.1768 0.0000 -176197.8348 20081.7110 246.4460 0.0000 30748.2712 -117863.4082 298.9564 -148611.6795 -117820.4200 299.1700 -103.9564 -45.3799 497052.0305 -4.5990 -4.2402
ENERGY: 28000 1695.9433 2373.6037 3212.5742 0.0000 -176245.7816 20072.5313 242.0458 0.0000 30847.3518 -117801.7315 299.9197 -148649.0833 -117758.2022 298.6567 -71.5624 -32.6428 497038.8265 -0.0634 -0.2736
ENERGY: 29000 1677.5501 2403.5402 3210.3179 0.0000 -176035.5736 20200.8305 240.8387 0.0000 30565.4538 -117737.0423 297.1789 -148302.4961 -117690.3533 298.8266 -90.0135 -17.0663 498822.5829 0.2139 0.6117
ENERGY: 30000 1607.9532 2405.7699 3187.2114 0.0000 -176353.5660 20356.3632 254.5367 0.0000 30666.5390 -117875.1926 298.1617 -148541.7316 -117836.6149 299.3363 63.3550 57.1931 498197.5595 -0.2555 -0.0174
TCL: Setting parameter constraintScaling to 0.15625
TCL: Running for 5000 steps
ETITLE: TS BOND ANGLE DIHED IMPRP ELECT VDW BOUNDARY MISC KINETIC TOTAL TEMP POTENTIAL TOTAL3 TEMPAVG PRESSURE GPRESSURE VOLUME PRESSAVG GPRESSAVG
ENERGY: 30000 1607.9532 2405.7699 3187.2114 0.0000 -176353.5660 20356.3632 127.2683 0.0000 30664.5052 -118004.4947 298.1419 -148668.9999 -117961.8961 298.1419 47.3805 46.9663 498197.5595 47.3805 46.9663
ENERGY: 31000 1697.5856 2430.5800 3196.2098 0.0000 -175799.8494 20030.4655 192.7274 0.0000 30695.1567 -117557.1243 298.4399 -148252.2810 -117502.3608 300.0326 -57.8194 10.7659 496268.2448 -7.4174 -7.4515
ENERGY: 32000 1641.8581 2356.8195 3192.5724 0.0000 -175703.6741 20028.7866 193.1973 0.0000 30985.2455 -117305.1948 301.2604 -148290.4402 -117264.9458 299.5736 -178.6514 -120.3503 498802.4853 11.5715 11.2864
ENERGY: 33000 1619.2244 2407.7979 3210.4483 0.0000 -175557.5219 20102.7494 210.0670 0.0000 30647.2312 -117360.0038 297.9740 -148007.2349 -117309.5494 300.4793 -21.7255 94.9309 496995.9332 -1.9987 -1.3746
ENERGY: 34000 1603.4925 2428.7197 3193.0564 0.0000 -176104.6018 20160.2466 203.4575 0.0000 30840.8871 -117674.7421 299.8568 -148515.6292 -117633.5744 299.0532 -111.8033 12.3540 496632.5018 -2.9533 -2.7041
ENERGY: 35000 1641.6762 2372.9155 3202.0735 0.0000 -176177.4942 20226.1169 194.1458 0.0000 30829.5594 -117711.0068 299.7467 -148540.5662 -117668.3050 299.7254 14.1952 53.1938 495191.5103 -7.5987 -7.6612
TCL: Setting parameter constraintScaling to 0.078125
TCL: Running for 5000 steps
ETITLE: TS BOND ANGLE DIHED IMPRP ELECT VDW BOUNDARY MISC KINETIC TOTAL TEMP POTENTIAL TOTAL3 TEMPAVG PRESSURE GPRESSURE VOLUME PRESSAVG GPRESSAVG
ENERGY: 35000 1641.6762 2372.9155 3202.0735 0.0000 -176177.4942 20226.1169 97.0729 0.0000 30827.4922 -117810.1470 299.7266 -148637.6391 -117768.8624 299.7266 0.3721 42.1168 495191.5103 0.3721 42.1168
ENERGY: 36000 1591.3772 2480.4448 3194.3496 0.0000 -175745.2502 19919.8670 140.0228 0.0000 30929.5230 -117489.6659 300.7186 -148419.1889 -117452.6801 300.1168 -60.8746 -4.7065 496464.5032 6.1971 6.0280
ENERGY: 37000 1624.7805 2424.2685 3218.0317 0.0000 -176117.0792 19973.4854 149.3221 0.0000 31050.0496 -117677.1415 301.8905 -148727.1911 -117638.4734 300.4092 -162.5158 -113.4150 497510.5258 7.8701 7.7977
ENERGY: 38000 1632.7397 2369.1206 3228.6575 0.0000 -175575.5647 19985.5967 168.6213 0.0000 31058.7592 -117132.0696 301.9751 -148190.8288 -117090.2901 300.1600 -96.0471 -17.3543 499210.1296 10.1992 10.4938
ENERGY: 39000 1647.8830 2416.9368 3181.8160 0.0000 -175490.9450 19958.2559 160.3915 0.0000 30799.7270 -117325.9349 299.4567 -148125.6619 -117284.9844 300.5214 -128.4901 -32.3318 497849.6820 -13.3069 -13.2827
ENERGY: 40000 1645.2370 2399.4256 3221.8302 0.0000 -176232.8807 20216.2667 176.9411 0.0000 30777.8715 -117795.3086 299.2442 -148573.1801 -117766.3771 299.1574 199.8944 97.5577 498364.9231 -1.3762 -1.1992
TCL: Setting parameter constraintScaling to 0.0390625
TCL: Running for 5000 steps
ETITLE: TS BOND ANGLE DIHED IMPRP ELECT VDW BOUNDARY MISC KINETIC TOTAL TEMP POTENTIAL TOTAL3 TEMPAVG PRESSURE GPRESSURE VOLUME PRESSAVG GPRESSAVG
ENERGY: 40000 1645.2370 2399.4256 3221.8302 0.0000 -176232.8807 20216.2667 88.4705 0.0000 30775.8076 -117885.8431 299.2241 -148661.6507 -117844.5923 299.2241 171.3009 62.2715 498364.9231 171.3009 62.2715
ENERGY: 41000 1553.5120 2499.0800 3219.3169 0.0000 -176286.5301 20263.4160 125.0681 0.0000 30755.3430 -117870.7939 299.0251 -148626.1370 -117819.8583 298.6832 27.2864 49.1658 498453.8939 -2.2571 -2.4485
ENERGY: 42000 1607.0068 2393.9366 3222.4326 0.0000 -176070.3623 19900.6903 112.0293 0.0000 30805.8460 -118028.4208 299.5161 -148834.2668 -117987.4298 298.5361 21.0092 68.8384 495327.1657 -6.5941 -7.1294
ENERGY: 43000 1645.0089 2378.1275 3216.9879 0.0000 -176087.7045 20026.9403 118.7768 0.0000 30791.0715 -117910.7917 299.3725 -148701.8631 -117871.0398 298.6183 -138.5599 -0.3193 496102.4747 5.5477 5.7140
ENERGY: 44000 1617.8746 2419.9322 3216.6879 0.0000 -176117.7398 20218.8560 121.8474 0.0000 30791.0090 -117731.5327 299.3719 -148522.5417 -117682.7432 298.6823 75.8250 96.3845 496186.5136 5.4197 5.5783
ENERGY: 45000 1607.0741 2371.8774 3234.5089 0.0000 -175886.9806 19833.1834 113.3148 0.0000 30908.2388 -117818.7832 300.5117 -148727.0220 -117766.3021 299.0967 -129.4240 -94.7429 496931.6250 4.8760 4.8995
TCL: Setting parameter constraintScaling to 0.01953125
TCL: Running for 5000 steps
ETITLE: TS BOND ANGLE DIHED IMPRP ELECT VDW BOUNDARY MISC KINETIC TOTAL TEMP POTENTIAL TOTAL3 TEMPAVG PRESSURE GPRESSURE VOLUME PRESSAVG GPRESSAVG
ENERGY: 45000 1607.0741 2371.8774 3234.5089 0.0000 -175886.9806 19833.1834 56.6574 0.0000 30906.1890 -117877.4904 300.4918 -148783.6794 -117833.1350 300.4918 -142.7686 -101.3206 496931.6250 -142.7686 -101.3206
ENERGY: 46000 1644.9931 2354.4344 3237.0062 0.0000 -175926.9019 20202.7217 69.1953 0.0000 30790.5948 -117627.9565 299.3679 -148418.5513 -117576.4911 300.6802 -24.0616 -100.7895 499128.0566 18.6570 19.0349
ENERGY: 47000 1656.2131 2400.3752 3210.1328 0.0000 -176101.9985 19944.0346 77.3571 0.0000 30937.9070 -117875.9786 300.8001 -148813.8856 -117836.9756 299.5942 -159.2072 -43.8572 497218.5280 -3.0734 -3.5044
ENERGY: 48000 1655.5761 2491.9577 3199.9160 0.0000 -175711.3852 19939.9183 79.4430 0.0000 30702.8342 -117641.7399 298.5146 -148344.5741 -117599.0653 299.5369 -125.6396 -62.5304 496924.5824 5.3078 5.4645
ENERGY: 49000 1628.8702 2369.9683 3239.9818 0.0000 -175937.0020 20078.5929 88.2308 0.0000 30994.6152 -117536.7427 301.3515 -148531.3579 -117491.9192 300.5155 -85.9036 118.0517 497969.3017 4.9275 5.2260
ENERGY: 50000 1636.1558 2395.0029 3225.1218 0.0000 -175680.0189 20092.9479 87.4370 0.0000 30981.4815 -117261.8720 301.2238 -148243.3535 -117218.9428 300.5631 -14.9720 24.1887 498663.6339 7.5922 7.9257
TCL: Setting parameter constraintScaling to 0
TCL: Running for 5000 steps
ETITLE: TS BOND ANGLE DIHED IMPRP ELECT VDW BOUNDARY MISC KINETIC TOTAL TEMP POTENTIAL TOTAL3 TEMPAVG PRESSURE GPRESSURE VOLUME PRESSAVG GPRESSAVG
ENERGY: 50000 1636.1558 2395.0029 3225.1218 0.0000 -175680.0189 20092.9479 0.0000 0.0000 30979.4480 -117351.3425 301.2040 -148330.7905 -117308.7576 301.2040 4.0906 33.2786 498663.6339 4.0906 33.2786
ENERGY: 51000 1657.6707 2356.8343 3219.4449 0.0000 -175857.8519 20073.7190 0.0000 0.0000 30906.8453 -117643.3376 300.4981 -148550.1829 -117588.1245 300.6768 -121.3185 -102.8845 497036.7522 6.0774 6.4662
ENERGY: 52000 1606.6073 2364.6500 3190.3134 0.0000 -175660.2476 20065.2884 0.0000 0.0000 30813.4212 -117619.9672 299.5898 -148433.3885 -117570.8379 299.7034 62.8600 82.3392 497219.5984 13.1056 12.5120
ENERGY: 53000 1677.4059 2429.2016 3225.6635 0.0000 -175687.8993 19950.6204 0.0000 0.0000 30863.6376 -117541.3702 300.0780 -148405.0078 -117491.4487 299.3930 -60.1958 -34.9841 497505.0339 2.0242 2.4681
ENERGY: 54000 1621.3432 2416.3174 3242.7458 0.0000 -176276.5893 20080.5285 0.0000 0.0000 30811.2838 -118104.3706 299.5690 -148915.6544 -118060.8607 299.3041 -126.7829 -47.9124 496943.0647 -10.3429 -10.3267
ENERGY: 55000 1664.4700 2413.7200 3208.0672 0.0000 -176369.9184 20321.8723 0.0000 0.0000 30733.2351 -118028.5538 298.8102 -148761.7889 -117987.5042 299.5930 -13.7919 -7.6076 496237.0068 -3.4482 -3.5127
