Info: SIMULATION PARAMETERS:
Info: TIMESTEP               2
Info: NUMBER OF STEPS        0
Info: STEPS PER CYCLE        10
Info: PERIODIC CELL BASIS 1  72.449 0 0
Info: PERIODIC CELL BASIS 2  0 93.247 0
Info: PERIODIC CELL BASIS 3  0 0 79.185
Info: PERIODIC CELL CENTER   -0.248 -0.156 -0.047
Info: WRAPPING WATERS AROUND PERIODIC BOUNDARIES ON OUTPUT.
Info: WRAPPING ALL CLUSTERS AROUND PERIODIC BOUNDARIES ON OUTPUT.
Info: FIRST LDB TIMESTEP     50
Info: LAST LDB TIMESTEP     -1
Info: HOM BACKGROUND SCALING 1
Info: PME BACKGROUND SCALING 1
Info: MIN ATOMS PER PATCH    40
Info: INITIAL TEMPERATURE    0
Info: CENTER OF MASS MOVING INITIALLY? NO
Info: DIELECTRIC             1
Info: EXCLUDE                SCALED ONE-FOUR
Info: 1-4 ELECTROSTATICS SCALED BY 0.833333
Info: MODIFIED 1-4 VDW PARAMETERS WILL BE USED
Info: NO DCD TRAJECTORY OUTPUT
Info: NO EXTENDED SYSTEM TRAJECTORY OUTPUT
Info: NO VELOCITY DCD OUTPUT
Info: NO FORCE DCD OUTPUT
Info: OUTPUT FILENAME        ../replicas/rep113/equilibration/eq0
Info: NO RESTART FILE
Info: SWITCHING ACTIVE
Info: SWITCHING ON           10
Info: SWITCHING OFF          12
Info: PAIRLIST DISTANCE      13.5
Info: PAIRLIST SHRINK RATE   0.01
Info: PAIRLIST GROW RATE     0.01
Info: PAIRLIST TRIGGER       0.3
Info: PAIRLISTS PER CYCLE    2
Info: PAIRLISTS ENABLED
Info: MARGIN                 0
Info: HYDROGEN GROUP CUTOFF  2.5
Info: PATCH DIMENSION        16
Info: ENERGY OUTPUT STEPS    500
Info: CROSSTERM ENERGY INCLUDED IN DIHEDRAL
Info: TIMING OUTPUT STEPS    5000
Info: PRESSURE OUTPUT STEPS  500
Info: HARMONIC CONSTRAINTS ACTIVE
Info: HARMONIC CONS EXP      2
Info: HARMONIC CONS SCALING  10
Info: CONJUGATE GRADIENT MINIMIZATION ACTIVE
Info: LINE MINIMIZATION GOAL = 0.001
Info: BABY STEP SIZE = 0.01
Info: TINY STEP SIZE = 1e-06
Info: PARTICLE MESH EWALD (PME) ACTIVE
Info: PME TOLERANCE               1e-06
Info: PME EWALD COEFFICIENT       0.257952
Info: PME INTERPOLATION ORDER     4
Info: PME GRID DIMENSIONS         80 96 80
Info: PME MAXIMUM GRID SPACING    1
Info: FULL ELECTROSTATIC EVALUATION FREQUENCY      2
Info: USING VERLET I (r-RESPA) MTS SCHEME.
Info: C1 SPLITTING OF LONG RANGE ELECTROSTATICS
Info: PLACING ATOMS IN PATCHES BY HYDROGEN GROUPS
Info: RIGID BONDS TO HYDROGEN : ALL
Info:         ERROR TOLERANCE : 1e-05
Info:          MAX ITERATIONS : 100
Info: RIGID WATER USING SETTLE ALGORITHM
Info: RANDOM NUMBER SEED     1503692828
Info: USE HYDROGEN BONDS?    NO
Info: Using AMBER format force field!
Info: AMBER PARM FILE        ../build/complex.top
Info: COORDINATE PDB         ../build/complex.pdb
Info: Exclusions in PARM file will be ignored!
Info: SCNB (VDW SCALING)     2
Info: USING ARITHMETIC MEAN TO COMBINE L-J SIGMA PARAMETERS
Info: SUMMARY OF PARAMETERS:
Info: 71 BONDS
Info: 145 ANGLES
Info: 76 DIHEDRAL
Info: 0 IMPROPER
Info: 0 CROSSTERM
Info: 0 VDW
Info: 190 VDW_PAIRS
Info: 0 NBTHOLE_PAIRS
Info: STRUCTURE SUMMARY:
Info: 49394 ATOMS
Info: 49448 BONDS
Info: 8698 ANGLES
Info: 18780 DIHEDRALS
Info: 0 IMPROPERS
Info: 0 CROSSTERMS
Info: 0 EXCLUSIONS
Info: 2336 CONSTRAINTS
Info: 47058 RIGID BONDS
Info: 101124 DEGREES OF FREEDOM
Info: 17225 HYDROGEN GROUPS
Info: 4 ATOMS IN LARGEST HYDROGEN GROUP
Info: 17225 MIGRATION GROUPS
Info: 4 ATOMS IN LARGEST MIGRATION GROUP
Info: TOTAL MASS = 301478 amu
Info: TOTAL CHARGE = 1.00115e-05 e
Info: MASS DENSITY = 0.935846 g/cm^3
Info: ATOM DENSITY = 0.0923345 atoms/A^3
Info: ADDED 70656 IMPLICIT EXCLUSIONS
Info: NONBONDED TABLE R-SQUARED SPACING: 0.0625
Info: NONBONDED TABLE SIZE: 769 POINTS
Info: REMOVING COM VELOCITY 0 0 0
TCL: Minimizing for 100 steps
ETITLE: TS BOND ANGLE DIHED IMPRP ELECT VDW BOUNDARY MISC KINETIC TOTAL TEMP POTENTIAL TOTAL3 TEMPAVG PRESSURE GPRESSURE VOLUME PRESSAVG GPRESSAVG
ENERGY: 0 155.4176 1012.2698 2855.7272 0.0000 -154496.7911 207729.2052 0.0468 0.0000 0.0000 57255.8755 0.0000 57255.8755 57255.8755 0.0000 116350.2532 86546.1670 534946.2959 116350.2532 86546.1670
ENERGY: 20 304.7540 935.7910 2893.4663 0.0000 -158672.9397 17936.6598 143.9454 0.0000 0.0000 -136458.3233 0.0000 -136458.3233 -136458.3233 0.0000 16523.9391 -239.4553 534946.2959 16523.9391 -239.4553
ENERGY: 40 198.7431 799.5725 2896.9273 0.0000 -162811.4542 16417.9534 221.3030 0.0000 0.0000 -142276.9549 0.0000 -142276.9549 -142276.9549 0.0000 15011.2700 -2135.4702 534946.2959 15011.2700 -2135.4702
ENERGY: 60 130.5284 715.3440 2898.2166 0.0000 -167496.1569 15446.7540 315.2796 0.0000 0.0000 -147990.0344 0.0000 -147990.0344 -147990.0344 0.0000 13793.8837 -3799.3987 534946.2959 13793.8837 -3799.3987
ENERGY: 80 431.2748 765.6312 2904.3784 0.0000 -169937.5242 15121.1530 372.0121 0.0000 0.0000 -150343.0747 0.0000 -150343.0747 -150343.0747 0.0000 13270.3320 -4577.2436 534946.2959 13270.3320 -4577.2436
ENERGY: 100 119.3879 710.0602 2905.2589 0.0000 -171259.7190 14991.7863 387.3613 0.0000 0.0000 -152145.8644 0.0000 -152145.8644 -152145.8644 0.0000 13056.2641 -4908.1746 534946.2959 13056.2641 -4908.1746
TCL: Setting parameter constraintScaling to 5.0
TCL: Minimizing for 100 steps
ETITLE: TS BOND ANGLE DIHED IMPRP ELECT VDW BOUNDARY MISC KINETIC TOTAL TEMP POTENTIAL TOTAL3 TEMPAVG PRESSURE GPRESSURE VOLUME PRESSAVG GPRESSAVG
ENERGY: 100 119.3879 710.0602 2905.2589 0.0000 -171259.7190 14991.7863 193.6806 0.0000 0.0000 -152339.5450 0.0000 -152339.5450 -152339.5450 0.0000 13672.7704 -23021.8207 534946.2959 13672.7704 -23021.8207
ENERGY: 120 108.8871 687.5856 2912.9268 0.0000 -172865.8745 14798.2710 281.1915 0.0000 0.0000 -154077.0125 0.0000 -154077.0125 -154077.0125 0.0000 13218.2558 -4906.0144 534946.2959 13218.2558 -4906.0144
ENERGY: 140 309.4877 708.8771 2913.8027 0.0000 -174236.5628 14731.4874 326.6364 0.0000 0.0000 -155246.2716 0.0000 -155246.2716 -155246.2716 0.0000 12971.5367 -5303.2195 534946.2959 12971.5367 -5303.2195
ENERGY: 160 264.9817 683.0391 2923.1592 0.0000 -176273.7934 14757.2444 382.8319 0.0000 0.0000 -157262.5371 0.0000 -157262.5371 -157262.5371 0.0000 12741.1550 -5742.7881 534946.2959 12741.1550 -5742.7881
ENERGY: 180 269.0619 744.0925 2928.5663 0.0000 -178994.1826 15023.3104 473.2386 0.0000 0.0000 -159555.9129 0.0000 -159555.9129 -159555.9129 0.0000 12521.6711 -6223.8651 534946.2959 12521.6711 -6223.8651
ENERGY: 200 238.7287 694.1105 2941.3519 0.0000 -181555.4150 15586.8541 546.2506 0.0000 0.0000 -161548.1190 0.0000 -161548.1190 -161548.1190 0.0000 12582.6341 -6420.6961 534946.2959 12582.6341 -6420.6961
TCL: Setting parameter constraintScaling to 2.5
TCL: Minimizing for 100 steps
ETITLE: TS BOND ANGLE DIHED IMPRP ELECT VDW BOUNDARY MISC KINETIC TOTAL TEMP POTENTIAL TOTAL3 TEMPAVG PRESSURE GPRESSURE VOLUME PRESSAVG GPRESSAVG
ENERGY: 200 238.7287 694.1105 2941.3519 0.0000 -181555.4150 15586.8541 273.1253 0.0000 0.0000 -161821.2443 0.0000 -161821.2443 -161821.2443 0.0000 13229.5213 -25651.4321 534946.2959 13229.5213 -25651.4321
ENERGY: 220 251.1294 680.1015 2933.0285 0.0000 -182082.9430 15470.5622 338.7012 0.0000 0.0000 -162409.4202 0.0000 -162409.4202 -162409.4202 0.0000 12967.4003 -6091.6133 534946.2959 12967.4003 -6091.6133
ENERGY: 240 139.2236 665.8608 2928.5923 0.0000 -182462.6450 15493.9978 343.6554 0.0000 0.0000 -162891.3151 0.0000 -162891.3151 -162891.3151 0.0000 13034.1357 -6104.2699 534946.2959 13034.1357 -6104.2699
ENERGY: 260 165.1559 683.7945 2921.6457 0.0000 -183941.4163 15800.5510 385.3641 0.0000 0.0000 -163984.9050 0.0000 -163984.9050 -163984.9050 0.0000 13031.9757 -6242.3257 534946.2959 13031.9757 -6242.3257
ENERGY: 280 169.1130 701.0481 2917.6177 0.0000 -185426.0506 16230.4379 454.7850 0.0000 0.0000 -164953.0489 0.0000 -164953.0489 -164953.0489 0.0000 13144.4222 -6334.2439 534946.2959 13144.4222 -6334.2439
ENERGY: 300 126.6675 639.6012 2916.2576 0.0000 -186098.4889 16447.5317 481.4257 0.0000 0.0000 -165487.0052 0.0000 -165487.0052 -165487.0052 0.0000 13208.5292 -6338.6075 534946.2959 13208.5292 -6338.6075
TCL: Setting parameter constraintScaling to 1.25
TCL: Minimizing for 100 steps
ETITLE: TS BOND ANGLE DIHED IMPRP ELECT VDW BOUNDARY MISC KINETIC TOTAL TEMP POTENTIAL TOTAL3 TEMPAVG PRESSURE GPRESSURE VOLUME PRESSAVG GPRESSAVG
ENERGY: 300 126.6675 639.6012 2916.2576 0.0000 -186098.4889 16447.5317 240.7129 0.0000 0.0000 -165727.7180 0.0000 -165727.7180 -165727.7180 0.0000 13656.9165 -26349.0056 534946.2959 13656.9165 -26349.0056
ENERGY: 320 132.2575 624.6046 2911.1419 0.0000 -186669.6788 16581.3605 272.7884 0.0000 0.0000 -166147.5258 0.0000 -166147.5258 -166147.5258 0.0000 13630.4542 -5970.0451 534946.2959 13630.4542 -5970.0451
ENERGY: 340 151.9958 625.0168 2910.7195 0.0000 -187373.6198 16809.8928 296.0523 0.0000 0.0000 -166579.9426 0.0000 -166579.9426 -166579.9426 0.0000 13645.8503 -6008.3120 534946.2959 13645.8503 -6008.3120
ENERGY: 360 300.1153 691.0314 2906.9265 0.0000 -189090.9840 17404.4371 364.3362 0.0000 0.0000 -167424.1375 0.0000 -167424.1375 -167424.1375 0.0000 13891.8035 -5999.2709 534946.2959 13891.8035 -5999.2709
ENERGY: 380 181.4860 657.9095 2901.4953 0.0000 -189971.7945 17754.6736 385.0085 0.0000 0.0000 -168091.2216 0.0000 -168091.2216 -168091.2216 0.0000 13980.3408 -5981.3797 534946.2959 13980.3408 -5981.3797
ENERGY: 400 133.6957 646.9831 2902.1492 0.0000 -190635.9293 17984.4601 400.0522 0.0000 0.0000 -168568.5890 0.0000 -168568.5890 -168568.5890 0.0000 14142.0267 -5920.5718 534946.2959 14142.0267 -5920.5718
TCL: Setting parameter constraintScaling to 0.625
TCL: Minimizing for 100 steps
ETITLE: TS BOND ANGLE DIHED IMPRP ELECT VDW BOUNDARY MISC KINETIC TOTAL TEMP POTENTIAL TOTAL3 TEMPAVG PRESSURE GPRESSURE VOLUME PRESSAVG GPRESSAVG
ENERGY: 400 133.6957 646.9831 2902.1492 0.0000 -190635.9293 17984.4601 200.0261 0.0000 0.0000 -168768.6151 0.0000 -168768.6151 -168768.6151 0.0000 14441.9513 -26624.4584 534946.2959 14441.9513 -26624.4584
ENERGY: 420 154.6469 643.8215 2893.8825 0.0000 -191106.0221 18103.4986 221.4313 0.0000 0.0000 -169088.7413 0.0000 -169088.7413 -169088.7413 0.0000 14438.5610 -5677.6407 534946.2959 14438.5610 -5677.6407
ENERGY: 440 174.9806 642.1921 2891.5866 0.0000 -191672.7876 18280.5604 243.1871 0.0000 0.0000 -169440.2807 0.0000 -169440.2807 -169440.2807 0.0000 14389.4778 -5752.4561 534946.2959 14389.4778 -5752.4561
ENERGY: 460 230.7158 672.6688 2891.0533 0.0000 -193207.3058 18842.8707 291.7464 0.0000 0.0000 -170278.2508 0.0000 -170278.2508 -170278.2508 0.0000 14671.9217 -5681.3185 534946.2959 14671.9217 -5681.3185
ENERGY: 480 146.9271 640.4442 2879.9930 0.0000 -193870.1703 19116.2876 311.8197 0.0000 0.0000 -170774.6987 0.0000 -170774.6987 -170774.6987 0.0000 14767.4826 -5642.8967 534946.2959 14767.4826 -5642.8967
ENERGY: 500 160.1810 649.1107 2878.6504 0.0000 -194138.5278 19227.7552 311.4300 0.0000 0.0000 -170911.4006 0.0000 -170911.4006 -170911.4006 0.0000 14824.0570 -5610.2192 534946.2959 14824.0570 -5610.2192
TCL: Setting parameter constraintScaling to 0.3125
TCL: Minimizing for 100 steps
ETITLE: TS BOND ANGLE DIHED IMPRP ELECT VDW BOUNDARY MISC KINETIC TOTAL TEMP POTENTIAL TOTAL3 TEMPAVG PRESSURE GPRESSURE VOLUME PRESSAVG GPRESSAVG
ENERGY: 500 160.1810 649.1107 2878.6504 0.0000 -194138.5278 19227.7552 155.7150 0.0000 0.0000 -171067.1155 0.0000 -171067.1155 -171067.1155 0.0000 15021.4368 -26869.3429 534946.2959 15021.4368 -26869.3429
ENERGY: 520 146.4923 646.5554 2878.8098 0.0000 -194312.5726 19279.8857 161.9797 0.0000 0.0000 -171198.8498 0.0000 -171198.8498 -171198.8498 0.0000 15026.4405 -5428.5978 534946.2959 15026.4405 -5428.5978
ENERGY: 540 152.4507 638.8072 2875.0113 0.0000 -194666.4971 19404.3395 171.2108 0.0000 0.0000 -171424.6776 0.0000 -171424.6776 -171424.6776 0.0000 15064.8529 -5435.2135 534946.2959 15064.8529 -5435.2135
ENERGY: 560 154.8694 642.9436 2873.1821 0.0000 -195071.5988 19550.0549 179.4625 0.0000 0.0000 -171671.0863 0.0000 -171671.0863 -171671.0863 0.0000 15152.6047 -5395.6278 534946.2959 15152.6047 -5395.6278
ENERGY: 580 161.9980 644.0308 2872.7347 0.0000 -196060.9745 19917.1742 202.6018 0.0000 0.0000 -172262.4350 0.0000 -172262.4350 -172262.4350 0.0000 15239.6379 -5394.6216 534946.2959 15239.6379 -5394.6216
ENERGY: 600 152.3546 644.4389 2865.1672 0.0000 -196829.8473 20228.1540 219.2284 0.0000 0.0000 -172720.5042 0.0000 -172720.5042 -172720.5042 0.0000 15424.2986 -5321.4889 534946.2959 15424.2986 -5321.4889
TCL: Setting parameter constraintScaling to 0.15625
TCL: Minimizing for 100 steps
ETITLE: TS BOND ANGLE DIHED IMPRP ELECT VDW BOUNDARY MISC KINETIC TOTAL TEMP POTENTIAL TOTAL3 TEMPAVG PRESSURE GPRESSURE VOLUME PRESSAVG GPRESSAVG
ENERGY: 600 152.3546 644.4389 2865.1672 0.0000 -196829.8473 20228.1540 109.6142 0.0000 0.0000 -172830.1184 0.0000 -172830.1184 -172830.1184 0.0000 15545.3417 -26978.8332 534946.2959 15545.3417 -26978.8332
ENERGY: 620 154.8899 642.8957 2863.7214 0.0000 -197046.1545 20304.6762 113.5444 0.0000 0.0000 -172966.4269 0.0000 -172966.4269 -172966.4269 0.0000 15551.6199 -5212.7708 534946.2959 15551.6199 -5212.7708
ENERGY: 640 164.0882 647.8401 2858.5072 0.0000 -197554.2379 20483.0309 121.0383 0.0000 0.0000 -173279.7333 0.0000 -173279.7333 -173279.7333 0.0000 15634.9171 -5190.6965 534946.2959 15634.9171 -5190.6965
ENERGY: 660 284.9102 656.3812 2859.0076 0.0000 -197885.3397 20603.0065 125.8227 0.0000 0.0000 -173356.2115 0.0000 -173356.2115 -173356.2115 0.0000 15658.1711 -5189.2536 534946.2959 15658.1711 -5189.2536
ENERGY: 680 158.3823 653.9958 2851.6758 0.0000 -198614.8673 20876.0266 135.1491 0.0000 0.0000 -173939.6377 0.0000 -173939.6377 -173939.6377 0.0000 15816.5755 -5130.2916 534946.2959 15816.5755 -5130.2916
ENERGY: 700 156.9562 648.1985 2852.8650 0.0000 -198698.5715 20902.1613 136.6880 0.0000 0.0000 -174001.7026 0.0000 -174001.7026 -174001.7026 0.0000 15822.4010 -5138.7672 534946.2959 15822.4010 -5138.7672
TCL: Setting parameter constraintScaling to 0.078125
TCL: Minimizing for 100 steps
ETITLE: TS BOND ANGLE DIHED IMPRP ELECT VDW BOUNDARY MISC KINETIC TOTAL TEMP POTENTIAL TOTAL3 TEMPAVG PRESSURE GPRESSURE VOLUME PRESSAVG GPRESSAVG
ENERGY: 700 156.9562 648.1985 2852.8650 0.0000 -198698.5715 20902.1613 68.3440 0.0000 0.0000 -174070.0466 0.0000 -174070.0466 -174070.0466 0.0000 15891.8972 -27075.6372 534946.2959 15891.8972 -27075.6372
ENERGY: 720 162.4797 662.2654 2850.6058 0.0000 -198852.9856 20960.9498 69.8546 0.0000 0.0000 -174146.8304 0.0000 -174146.8304 -174146.8304 0.0000 15919.2974 -5051.5949 534946.2959 15919.2974 -5051.5949
ENERGY: 740 172.8831 653.0016 2847.7572 0.0000 -199322.3166 21124.0418 74.4938 0.0000 0.0000 -174450.1392 0.0000 -174450.1392 -174450.1392 0.0000 15977.8331 -5042.6696 534946.2959 15977.8331 -5042.6696
ENERGY: 760 161.1805 647.1371 2841.4540 0.0000 -200011.9237 21377.9764 80.4616 0.0000 0.0000 -174903.7141 0.0000 -174903.7141 -174903.7141 0.0000 16105.3322 -5009.3701 534946.2959 16105.3322 -5009.3701
ENERGY: 780 316.9436 679.2588 2835.9120 0.0000 -200890.7503 21725.4001 89.3034 0.0000 0.0000 -175243.9323 0.0000 -175243.9323 -175243.9323 0.0000 16243.1741 -4972.2006 534946.2959 16243.1741 -4972.2006
ENERGY: 800 163.4631 652.6200 2837.2591 0.0000 -200826.7163 21697.0865 87.6655 0.0000 0.0000 -175388.6221 0.0000 -175388.6221 -175388.6221 0.0000 16257.3642 -4949.1177 534946.2959 16257.3642 -4949.1177
TCL: Setting parameter constraintScaling to 0.0390625
TCL: Minimizing for 100 steps
ETITLE: TS BOND ANGLE DIHED IMPRP ELECT VDW BOUNDARY MISC KINETIC TOTAL TEMP POTENTIAL TOTAL3 TEMPAVG PRESSURE GPRESSURE VOLUME PRESSAVG GPRESSAVG
ENERGY: 800 163.4631 652.6200 2837.2591 0.0000 -200826.7163 21697.0865 43.8328 0.0000 0.0000 -175432.4548 0.0000 -175432.4548 -175432.4548 0.0000 16297.7864 -27180.2060 534946.2959 16297.7864 -27180.2060
ENERGY: 820 207.3995 674.9813 2836.2045 0.0000 -200993.8279 21757.5638 44.9792 0.0000 0.0000 -175472.6995 0.0000 -175472.6995 -175472.6995 0.0000 16316.1626 -4906.7006 534946.2959 16316.1626 -4906.7006
ENERGY: 840 164.5255 651.4645 2831.6053 0.0000 -201271.9843 21862.1415 46.2264 0.0000 0.0000 -175716.0212 0.0000 -175716.0212 -175716.0212 0.0000 16378.4552 -4882.0008 534946.2959 16378.4552 -4882.0008
ENERGY: 860 238.9705 670.5491 2829.9815 0.0000 -201892.0216 22098.8359 49.3077 0.0000 0.0000 -176004.3768 0.0000 -176004.3768 -176004.3768 0.0000 16494.3801 -4848.1277 534946.2959 16494.3801 -4848.1277
ENERGY: 880 282.5011 816.4393 2848.4484 0.0000 -202347.9114 22291.3324 51.0617 0.0000 0.0000 -176058.1284 0.0000 -176058.1284 -176058.1284 0.0000 16647.9432 -4785.3831 534946.2959 16647.9432 -4785.3831
ENERGY: 900 166.8816 649.9633 2826.4972 0.0000 -202231.5362 22234.7566 50.8606 0.0000 0.0000 -176302.5768 0.0000 -176302.5768 -176302.5768 0.0000 16540.3483 -4823.0884 534946.2959 16540.3483 -4823.0884
TCL: Setting parameter constraintScaling to 0.01953125
TCL: Minimizing for 100 steps
ETITLE: TS BOND ANGLE DIHED IMPRP ELECT VDW BOUNDARY MISC KINETIC TOTAL TEMP POTENTIAL TOTAL3 TEMPAVG PRESSURE GPRESSURE VOLUME PRESSAVG GPRESSAVG
ENERGY: 900 166.8816 649.9633 2826.4972 0.0000 -202231.5362 22234.7566 25.4303 0.0000 0.0000 -176328.0071 0.0000 -176328.0071 -176328.0071 0.0000 16562.5344 -27254.7835 534946.2959 16562.5344 -27254.7835
ENERGY: 920 177.6171 654.8569 2824.1726 0.0000 -202450.6722 22319.0598 25.9962 0.0000 0.0000 -176448.9697 0.0000 -176448.9697 -176448.9697 0.0000 16618.6690 -4780.1213 534946.2959 16618.6690 -4780.1213
ENERGY: 940 176.5353 664.8642 2823.4760 0.0000 -202878.9113 22493.0530 27.2261 0.0000 0.0000 -176693.7567 0.0000 -176693.7567 -176693.7567 0.0000 16676.2380 -4759.5053 534946.2959 16676.2380 -4759.5053
ENERGY: 960 164.3322 654.3953 2821.3325 0.0000 -203013.7925 22544.8839 27.5766 0.0000 0.0000 -176801.2720 0.0000 -176801.2720 -176801.2720 0.0000 16737.4346 -4728.5471 534946.2959 16737.4346 -4728.5471
ENERGY: 980 179.2704 656.3036 2817.9262 0.0000 -203511.0901 22756.5320 28.8434 0.0000 0.0000 -177072.2145 0.0000 -177072.2145 -177072.2145 0.0000 16831.8555 -4684.5729 534946.2959 16831.8555 -4684.5729
ENERGY: 1000 214.5512 662.6207 2812.1777 0.0000 -204792.9400 23381.6337 32.7507 0.0000 0.0000 -177689.2060 0.0000 -177689.2060 -177689.2060 0.0000 17154.8043 -4520.2320 534946.2959 17154.8043 -4520.2320
TCL: Setting parameter constraintScaling to 0
TCL: Minimizing for 5000 steps
ETITLE: TS BOND ANGLE DIHED IMPRP ELECT VDW BOUNDARY MISC KINETIC TOTAL TEMP POTENTIAL TOTAL3 TEMPAVG PRESSURE GPRESSURE VOLUME PRESSAVG GPRESSAVG
ENERGY: 1000 214.5512 662.6207 2812.1777 0.0000 -204792.9400 23381.6337 0.0000 0.0000 0.0000 -177721.9566 0.0000 -177721.9566 -177721.9566 0.0000 17180.9701 -27246.9545 534946.2959 17180.9701 -27246.9545
ENERGY: 2000 167.4977 662.0889 2800.8460 0.0000 -214350.0725 27583.2681 0.0000 0.0000 0.0000 -183136.3718 0.0000 -183136.3718 -183136.3718 0.0000 19416.0019 -3332.6552 534946.2959 19416.0019 -3332.6552
ENERGY: 3000 168.1247 667.6095 2791.8965 0.0000 -217374.6719 28830.9324 0.0000 0.0000 0.0000 -184916.1088 0.0000 -184916.1088 -184916.1088 0.0000 20075.4628 -2985.1190 534946.2959 20075.4628 -2985.1190
ENERGY: 4000 165.7222 664.2340 2787.0431 0.0000 -218547.2943 29287.7747 0.0000 0.0000 0.0000 -185642.5203 0.0000 -185642.5203 -185642.5203 0.0000 20322.1168 -2854.2247 534946.2959 20322.1168 -2854.2247
ENERGY: 5000 165.3039 662.2866 2782.2774 0.0000 -219306.6511 29611.7297 0.0000 0.0000 0.0000 -186085.0534 0.0000 -186085.0534 -186085.0534 0.0000 20491.2448 -2757.1509 534946.2959 20491.2448 -2757.1509
ENERGY: 6000 164.5732 660.0703 2778.9886 0.0000 -219873.0175 29819.4057 0.0000 0.0000 0.0000 -186449.9797 0.0000 -186449.9797 -186449.9797 0.0000 20604.5688 -2711.9378 534946.2959 20604.5688 -2711.9378
