Info: SIMULATION PARAMETERS:
Info: TIMESTEP               2
Info: NUMBER OF STEPS        0
Info: STEPS PER CYCLE        10
Info: PERIODIC CELL BASIS 1  72.449 0 0
Info: PERIODIC CELL BASIS 2  0 93.247 0
Info: PERIODIC CELL BASIS 3  0 0 79.185
Info: PERIODIC CELL CENTER   -0.248 -0.156 -0.047
Info: WRAPPING WATERS AROUND PERIODIC BOUNDARIES ON OUTPUT.
Info: WRAPPING ALL CLUSTERS AROUND PERIODIC BOUNDARIES ON OUTPUT.
Info: FIRST LDB TIMESTEP     50
Info: LAST LDB TIMESTEP     -1
Info: HOM BACKGROUND SCALING 1
Info: PME BACKGROUND SCALING 1
Info: MIN ATOMS PER PATCH    40
Info: INITIAL TEMPERATURE    0
Info: CENTER OF MASS MOVING INITIALLY? NO
Info: DIELECTRIC             1
Info: EXCLUDE                SCALED ONE-FOUR
Info: 1-4 ELECTROSTATICS SCALED BY 0.833333
Info: MODIFIED 1-4 VDW PARAMETERS WILL BE USED
Info: NO DCD TRAJECTORY OUTPUT
Info: NO EXTENDED SYSTEM TRAJECTORY OUTPUT
Info: NO VELOCITY DCD OUTPUT
Info: NO FORCE DCD OUTPUT
Info: OUTPUT FILENAME        ../replicas/rep26/equilibration/eq0
Info: NO RESTART FILE
Info: SWITCHING ACTIVE
Info: SWITCHING ON           10
Info: SWITCHING OFF          12
Info: PAIRLIST DISTANCE      13.5
Info: PAIRLIST SHRINK RATE   0.01
Info: PAIRLIST GROW RATE     0.01
Info: PAIRLIST TRIGGER       0.3
Info: PAIRLISTS PER CYCLE    2
Info: PAIRLISTS ENABLED
Info: MARGIN                 0
Info: HYDROGEN GROUP CUTOFF  2.5
Info: PATCH DIMENSION        16
Info: ENERGY OUTPUT STEPS    500
Info: CROSSTERM ENERGY INCLUDED IN DIHEDRAL
Info: TIMING OUTPUT STEPS    5000
Info: PRESSURE OUTPUT STEPS  500
Info: HARMONIC CONSTRAINTS ACTIVE
Info: HARMONIC CONS EXP      2
Info: HARMONIC CONS SCALING  10
Info: CONJUGATE GRADIENT MINIMIZATION ACTIVE
Info: LINE MINIMIZATION GOAL = 0.001
Info: BABY STEP SIZE = 0.01
Info: TINY STEP SIZE = 1e-06
Info: PARTICLE MESH EWALD (PME) ACTIVE
Info: PME TOLERANCE               1e-06
Info: PME EWALD COEFFICIENT       0.257952
Info: PME INTERPOLATION ORDER     4
Info: PME GRID DIMENSIONS         80 96 80
Info: PME MAXIMUM GRID SPACING    1
Info: FULL ELECTROSTATIC EVALUATION FREQUENCY      2
Info: USING VERLET I (r-RESPA) MTS SCHEME.
Info: C1 SPLITTING OF LONG RANGE ELECTROSTATICS
Info: PLACING ATOMS IN PATCHES BY HYDROGEN GROUPS
Info: RIGID BONDS TO HYDROGEN : ALL
Info:         ERROR TOLERANCE : 1e-05
Info:          MAX ITERATIONS : 100
Info: RIGID WATER USING SETTLE ALGORITHM
Info: RANDOM NUMBER SEED     1503691734
Info: USE HYDROGEN BONDS?    NO
Info: Using AMBER format force field!
Info: AMBER PARM FILE        ../build/complex.top
Info: COORDINATE PDB         ../build/complex.pdb
Info: Exclusions in PARM file will be ignored!
Info: SCNB (VDW SCALING)     2
Info: USING ARITHMETIC MEAN TO COMBINE L-J SIGMA PARAMETERS
Info: SUMMARY OF PARAMETERS:
Info: 71 BONDS
Info: 145 ANGLES
Info: 76 DIHEDRAL
Info: 0 IMPROPER
Info: 0 CROSSTERM
Info: 0 VDW
Info: 190 VDW_PAIRS
Info: 0 NBTHOLE_PAIRS
Info: STRUCTURE SUMMARY:
Info: 49394 ATOMS
Info: 49448 BONDS
Info: 8698 ANGLES
Info: 18780 DIHEDRALS
Info: 0 IMPROPERS
Info: 0 CROSSTERMS
Info: 0 EXCLUSIONS
Info: 2336 CONSTRAINTS
Info: 47058 RIGID BONDS
Info: 101124 DEGREES OF FREEDOM
Info: 17225 HYDROGEN GROUPS
Info: 4 ATOMS IN LARGEST HYDROGEN GROUP
Info: 17225 MIGRATION GROUPS
Info: 4 ATOMS IN LARGEST MIGRATION GROUP
Info: TOTAL MASS = 301478 amu
Info: TOTAL CHARGE = 1.00115e-05 e
Info: MASS DENSITY = 0.935846 g/cm^3
Info: ATOM DENSITY = 0.0923345 atoms/A^3
Info: ADDED 70656 IMPLICIT EXCLUSIONS
Info: NONBONDED TABLE R-SQUARED SPACING: 0.0625
Info: NONBONDED TABLE SIZE: 769 POINTS
Info: REMOVING COM VELOCITY 0 0 0
TCL: Minimizing for 100 steps
ETITLE: TS BOND ANGLE DIHED IMPRP ELECT VDW BOUNDARY MISC KINETIC TOTAL TEMP POTENTIAL TOTAL3 TEMPAVG PRESSURE GPRESSURE VOLUME PRESSAVG GPRESSAVG
ENERGY: 0 155.4176 1012.2698 2855.7272 0.0000 -154496.7911 207729.2052 0.0468 0.0000 0.0000 57255.8755 0.0000 57255.8755 57255.8755 0.0000 116350.2532 86546.1670 534946.2959 116350.2532 86546.1670
ENERGY: 20 304.7551 935.7911 2893.4663 0.0000 -158672.9407 17936.6594 143.9454 0.0000 0.0000 -136458.3234 0.0000 -136458.3234 -136458.3234 0.0000 16523.9387 -239.4558 534946.2959 16523.9387 -239.4558
ENERGY: 40 198.7445 799.5727 2896.9273 0.0000 -162811.4537 16417.9536 221.3030 0.0000 0.0000 -142276.9526 0.0000 -142276.9526 -142276.9526 0.0000 15011.2702 -2135.4700 534946.2959 15011.2702 -2135.4700
ENERGY: 60 130.5283 715.3440 2898.2166 0.0000 -167496.1568 15446.7540 315.2796 0.0000 0.0000 -147990.0344 0.0000 -147990.0344 -147990.0344 0.0000 13793.8837 -3799.3986 534946.2959 13793.8837 -3799.3986
ENERGY: 80 431.2731 765.6308 2904.3786 0.0000 -169937.5283 15121.1525 372.0122 0.0000 0.0000 -150343.0811 0.0000 -150343.0811 -150343.0811 0.0000 13270.3310 -4577.2445 534946.2959 13270.3310 -4577.2445
ENERGY: 100 129.7143 708.0650 2904.2780 0.0000 -171050.0693 15018.6530 384.2001 0.0000 0.0000 -151905.1589 0.0000 -151905.1589 -151905.1589 0.0000 13092.9122 -4843.6326 534946.2959 13092.9122 -4843.6326
TCL: Setting parameter constraintScaling to 5.0
TCL: Minimizing for 100 steps
ETITLE: TS BOND ANGLE DIHED IMPRP ELECT VDW BOUNDARY MISC KINETIC TOTAL TEMP POTENTIAL TOTAL3 TEMPAVG PRESSURE GPRESSURE VOLUME PRESSAVG GPRESSAVG
ENERGY: 100 129.7143 708.0650 2904.2780 0.0000 -171050.0693 15018.6530 192.1000 0.0000 0.0000 -152097.2589 0.0000 -152097.2589 -152097.2589 0.0000 13703.5074 -22944.4558 534946.2959 13703.5074 -22944.4558
ENERGY: 120 118.6820 680.2876 2909.9066 0.0000 -172396.3186 14830.1202 259.9550 0.0000 0.0000 -153597.3671 0.0000 -153597.3671 -153597.3671 0.0000 13320.9466 -4756.3085 534946.2959 13320.9466 -4756.3085
ENERGY: 140 109.1485 671.1467 2912.0864 0.0000 -174830.2806 14716.1437 337.7312 0.0000 0.0000 -156084.0240 0.0000 -156084.0240 -156084.0240 0.0000 12908.9563 -5423.1509 534946.2959 12908.9563 -5423.1509
ENERGY: 160 125.8525 667.1498 2914.1926 0.0000 -175966.9927 14735.1322 362.9174 0.0000 0.0000 -157161.7482 0.0000 -157161.7482 -157161.7482 0.0000 12806.9011 -5643.0003 534946.2959 12806.9011 -5643.0003
ENERGY: 180 303.5174 659.6767 2917.2964 0.0000 -177408.6340 14815.0084 395.3810 0.0000 0.0000 -158317.7541 0.0000 -158317.7541 -158317.7541 0.0000 12699.3179 -5900.0985 534946.2959 12699.3179 -5900.0985
ENERGY: 200 109.2135 628.4817 2923.3603 0.0000 -179544.3630 15071.2419 441.8960 0.0000 0.0000 -160370.1695 0.0000 -160370.1695 -160370.1695 0.0000 12659.9893 -6161.1154 534946.2959 12659.9893 -6161.1154
TCL: Setting parameter constraintScaling to 2.5
TCL: Minimizing for 100 steps
ETITLE: TS BOND ANGLE DIHED IMPRP ELECT VDW BOUNDARY MISC KINETIC TOTAL TEMP POTENTIAL TOTAL3 TEMPAVG PRESSURE GPRESSURE VOLUME PRESSAVG GPRESSAVG
ENERGY: 200 109.2135 628.4817 2923.3603 0.0000 -179544.3630 15071.2419 220.9480 0.0000 0.0000 -160591.1175 0.0000 -160591.1175 -160591.1175 0.0000 13208.4235 -25280.3074 534946.2959 13208.4235 -25280.3074
ENERGY: 220 275.9206 652.4424 2925.2795 0.0000 -180399.1289 15109.1577 288.2464 0.0000 0.0000 -161148.0822 0.0000 -161148.0822 -161148.0822 0.0000 12999.2230 -5921.6553 534946.2959 12999.2230 -5921.6553
ENERGY: 240 252.4544 638.8959 2923.2549 0.0000 -181405.6204 15262.0572 324.6246 0.0000 0.0000 -162004.3335 0.0000 -162004.3335 -162004.3335 0.0000 12954.4970 -6065.6499 534946.2959 12954.4970 -6065.6499
ENERGY: 260 303.8285 657.1605 2922.8674 0.0000 -183657.2250 15764.5683 412.7893 0.0000 0.0000 -163596.0111 0.0000 -163596.0111 -163596.0111 0.0000 12989.7259 -6284.8132 534946.2959 12989.7259 -6284.8132
ENERGY: 280 148.9791 673.1606 2920.5680 0.0000 -184574.9683 16029.8082 430.3006 0.0000 0.0000 -164372.1517 0.0000 -164372.1517 -164372.1517 0.0000 13099.7133 -6288.7338 534946.2959 13099.7133 -6288.7338
ENERGY: 300 136.9706 656.3461 2924.6486 0.0000 -186052.6830 16495.4386 425.4259 0.0000 0.0000 -165413.8532 0.0000 -165413.8532 -165413.8532 0.0000 13320.6111 -6220.8200 534946.2959 13320.6111 -6220.8200
TCL: Setting parameter constraintScaling to 1.25
TCL: Minimizing for 100 steps
ETITLE: TS BOND ANGLE DIHED IMPRP ELECT VDW BOUNDARY MISC KINETIC TOTAL TEMP POTENTIAL TOTAL3 TEMPAVG PRESSURE GPRESSURE VOLUME PRESSAVG GPRESSAVG
ENERGY: 300 136.9706 656.3461 2924.6486 0.0000 -186052.6830 16495.4386 212.7129 0.0000 0.0000 -165626.5661 0.0000 -165626.5661 -165626.5661 0.0000 13733.5631 -26264.0284 534946.2959 13733.5631 -26264.0284
ENERGY: 320 186.7814 642.2621 2910.5758 0.0000 -186877.3783 16682.1586 270.7300 0.0000 0.0000 -166184.8704 0.0000 -166184.8704 -166184.8704 0.0000 13695.3624 -5948.0786 534946.2959 13695.3624 -5948.0786
ENERGY: 340 224.7143 685.7175 2911.1484 0.0000 -188032.7775 17012.6587 331.7670 0.0000 0.0000 -166866.7715 0.0000 -166866.7715 -166866.7715 0.0000 13699.0954 -6053.9922 534946.2959 13699.0954 -6053.9922
ENERGY: 360 138.0172 638.8881 2905.1420 0.0000 -188676.3370 17229.0135 357.4237 0.0000 0.0000 -167407.8524 0.0000 -167407.8524 -167407.8524 0.0000 13798.8023 -6041.9729 534946.2959 13798.8023 -6041.9729
ENERGY: 380 155.0534 638.5749 2901.9637 0.0000 -189322.0678 17469.8196 357.1977 0.0000 0.0000 -167799.4585 0.0000 -167799.4585 -167799.4585 0.0000 13893.0861 -6011.0739 534946.2959 13893.0861 -6011.0739
ENERGY: 400 222.8717 695.2648 2917.4701 0.0000 -190900.5015 18082.7224 359.7480 0.0000 0.0000 -168622.4246 0.0000 -168622.4246 -168622.4246 0.0000 14205.4536 -5876.8793 534946.2959 14205.4536 -5876.8793
TCL: Setting parameter constraintScaling to 0.625
TCL: Minimizing for 100 steps
ETITLE: TS BOND ANGLE DIHED IMPRP ELECT VDW BOUNDARY MISC KINETIC TOTAL TEMP POTENTIAL TOTAL3 TEMPAVG PRESSURE GPRESSURE VOLUME PRESSAVG GPRESSAVG
ENERGY: 400 222.8717 695.2648 2917.4701 0.0000 -190900.5015 18082.7224 179.8740 0.0000 0.0000 -168802.2986 0.0000 -168802.2986 -168802.2986 0.0000 14491.2512 -26661.3837 534946.2959 14491.2512 -26661.3837
ENERGY: 420 313.3756 726.2013 2907.0818 0.0000 -191704.3562 18299.6748 240.9777 0.0000 0.0000 -169217.0450 0.0000 -169217.0450 -169217.0450 0.0000 14396.6760 -5773.1170 534946.2959 14396.6760 -5773.1170
ENERGY: 440 170.2644 675.4453 2894.2118 0.0000 -192295.2597 18505.9504 251.4399 0.0000 0.0000 -169797.9479 0.0000 -169797.9479 -169797.9479 0.0000 14537.8268 -5714.4196 534946.2959 14537.8268 -5714.4196
ENERGY: 460 145.7088 655.5012 2884.2249 0.0000 -193648.2995 19034.2197 298.1454 0.0000 0.0000 -170630.4995 0.0000 -170630.4995 -170630.4995 0.0000 14759.3647 -5641.9695 534946.2959 14759.3647 -5641.9695
ENERGY: 480 212.6227 673.0760 2886.4236 0.0000 -194895.9565 19546.6611 337.6271 0.0000 0.0000 -171239.5461 0.0000 -171239.5461 -171239.5461 0.0000 14923.5733 -5607.2233 534946.2959 14923.5733 -5607.2233
ENERGY: 500 148.1454 644.3159 2875.9432 0.0000 -194985.1930 19589.9541 326.7567 0.0000 0.0000 -171400.0777 0.0000 -171400.0777 -171400.0777 0.0000 15017.5707 -5530.5287 534946.2959 15017.5707 -5530.5287
TCL: Setting parameter constraintScaling to 0.3125
TCL: Minimizing for 100 steps
ETITLE: TS BOND ANGLE DIHED IMPRP ELECT VDW BOUNDARY MISC KINETIC TOTAL TEMP POTENTIAL TOTAL3 TEMPAVG PRESSURE GPRESSURE VOLUME PRESSAVG GPRESSAVG
ENERGY: 500 148.1454 644.3159 2875.9432 0.0000 -194985.1930 19589.9541 163.3783 0.0000 0.0000 -171563.4560 0.0000 -171563.4560 -171563.4560 0.0000 15219.1888 -26884.2297 534946.2959 15219.1888 -26884.2297
ENERGY: 520 297.7375 690.1526 2884.3276 0.0000 -195301.0035 19680.7063 177.4320 0.0000 0.0000 -171570.6477 0.0000 -171570.6477 -171570.6477 0.0000 15142.9036 -5425.2044 534946.2959 15142.9036 -5425.2044
ENERGY: 540 154.8262 640.3676 2868.0078 0.0000 -195817.9764 19872.3039 185.9286 0.0000 0.0000 -172096.5423 0.0000 -172096.5423 -172096.5423 0.0000 15290.6256 -5342.4020 534946.2959 15290.6256 -5342.4020
ENERGY: 560 153.7323 635.7003 2869.0147 0.0000 -196351.7771 20058.0518 197.7290 0.0000 0.0000 -172437.5491 0.0000 -172437.5491 -172437.5491 0.0000 15353.0451 -5343.4443 534946.2959 15353.0451 -5343.4443
ENERGY: 580 205.6971 701.8945 2874.8182 0.0000 -197007.5651 20287.7641 216.7683 0.0000 0.0000 -172720.6228 0.0000 -172720.6228 -172720.6228 0.0000 15466.1963 -5332.8182 534946.2959 15466.1963 -5332.8182
ENERGY: 600 152.2603 655.6225 2862.4562 0.0000 -197910.9874 20653.8053 224.0511 0.0000 0.0000 -173362.7919 0.0000 -173362.7919 -173362.7919 0.0000 15688.1094 -5210.3252 534946.2959 15688.1094 -5210.3252
TCL: Setting parameter constraintScaling to 0.15625
TCL: Minimizing for 100 steps
ETITLE: TS BOND ANGLE DIHED IMPRP ELECT VDW BOUNDARY MISC KINETIC TOTAL TEMP POTENTIAL TOTAL3 TEMPAVG PRESSURE GPRESSURE VOLUME PRESSAVG GPRESSAVG
ENERGY: 600 152.2603 655.6225 2862.4562 0.0000 -197910.9874 20653.8053 112.0255 0.0000 0.0000 -173474.8175 0.0000 -173474.8175 -173474.8175 0.0000 15810.0944 -26985.5201 534946.2959 15810.0944 -26985.5201
ENERGY: 620 161.7995 658.2861 2863.0195 0.0000 -198177.7831 20735.8675 121.1173 0.0000 0.0000 -173637.6933 0.0000 -173637.6933 -173637.6933 0.0000 15754.2095 -5154.8621 534946.2959 15754.2095 -5154.8621
ENERGY: 640 148.3461 662.8422 2856.5495 0.0000 -198776.0395 20961.2526 127.1556 0.0000 0.0000 -174019.8935 0.0000 -174019.8935 -174019.8935 0.0000 15903.7165 -5086.3827 534946.2959 15903.7165 -5086.3827
ENERGY: 660 178.4276 658.0194 2849.5651 0.0000 -199834.4766 21345.8715 148.3081 0.0000 0.0000 -174654.2850 0.0000 -174654.2850 -174654.2850 0.0000 16028.0505 -5076.5371 534946.2959 16028.0505 -5076.5371
ENERGY: 680 285.0973 736.2252 2859.0842 0.0000 -200362.2601 21574.4656 148.7471 0.0000 0.0000 -174758.6406 0.0000 -174758.6406 -174758.6406 0.0000 16217.4892 -4968.0821 534946.2959 16217.4892 -4968.0821
ENERGY: 700 179.0458 643.1093 2840.3609 0.0000 -201346.9577 21958.7826 161.6098 0.0000 0.0000 -175564.0493 0.0000 -175564.0493 -175564.0493 0.0000 16341.1944 -4922.6193 534946.2959 16341.1944 -4922.6193
TCL: Setting parameter constraintScaling to 0.078125
TCL: Minimizing for 100 steps
ETITLE: TS BOND ANGLE DIHED IMPRP ELECT VDW BOUNDARY MISC KINETIC TOTAL TEMP POTENTIAL TOTAL3 TEMPAVG PRESSURE GPRESSURE VOLUME PRESSAVG GPRESSAVG
ENERGY: 700 179.0458 643.1093 2840.3609 0.0000 -201346.9577 21958.7826 80.8049 0.0000 0.0000 -175644.8542 0.0000 -175644.8542 -175644.8542 0.0000 16417.3075 -27206.2556 534946.2959 16417.3075 -27206.2556
ENERGY: 720 170.3529 665.1728 2839.8303 0.0000 -201587.4661 22017.9791 85.9475 0.0000 0.0000 -175808.1836 0.0000 -175808.1836 -175808.1836 0.0000 16408.9312 -4890.9566 534946.2959 16408.9312 -4890.9566
ENERGY: 740 173.4915 669.9384 2833.6893 0.0000 -202029.1088 22186.2668 92.1341 0.0000 0.0000 -176073.5887 0.0000 -176073.5887 -176073.5887 0.0000 16500.4356 -4863.9489 534946.2959 16500.4356 -4863.9489
ENERGY: 760 171.4571 652.4423 2832.2446 0.0000 -202535.8781 22393.8435 95.3072 0.0000 0.0000 -176390.5833 0.0000 -176390.5833 -176390.5833 0.0000 16624.3782 -4797.5381 534946.2959 16624.3782 -4797.5381
ENERGY: 780 170.9035 667.5683 2831.0056 0.0000 -202731.4412 22465.4222 98.0418 0.0000 0.0000 -176498.4998 0.0000 -176498.4998 -176498.4998 0.0000 16620.7870 -4817.2618 534946.2959 16620.7870 -4817.2618
ENERGY: 800 167.4795 649.6150 2824.5551 0.0000 -203198.4533 22672.1969 99.5889 0.0000 0.0000 -176785.0178 0.0000 -176785.0178 -176785.0178 0.0000 16764.2295 -4734.5396 534946.2959 16764.2295 -4734.5396
TCL: Setting parameter constraintScaling to 0.0390625
TCL: Minimizing for 100 steps
ETITLE: TS BOND ANGLE DIHED IMPRP ELECT VDW BOUNDARY MISC KINETIC TOTAL TEMP POTENTIAL TOTAL3 TEMPAVG PRESSURE GPRESSURE VOLUME PRESSAVG GPRESSAVG
ENERGY: 800 167.4795 649.6150 2824.5551 0.0000 -203198.4533 22672.1969 49.7945 0.0000 0.0000 -176834.8123 0.0000 -176834.8123 -176834.8123 0.0000 16807.5257 -27254.5246 534946.2959 16807.5257 -27254.5246
ENERGY: 820 156.6447 646.5212 2822.4464 0.0000 -203320.1167 22713.5250 50.5627 0.0000 0.0000 -176930.4168 0.0000 -176930.4168 -176930.4168 0.0000 16837.8705 -4677.1959 534946.2959 16837.8705 -4677.1959
ENERGY: 840 181.2376 660.0458 2826.0713 0.0000 -203531.5545 22794.4410 52.3367 0.0000 0.0000 -177017.4220 0.0000 -177017.4220 -177017.4220 0.0000 16835.9269 -4689.5600 534946.2959 16835.9269 -4689.5600
ENERGY: 860 174.2242 659.7523 2818.2439 0.0000 -203790.8633 22905.6342 53.7095 0.0000 0.0000 -177179.2991 0.0000 -177179.2991 -177179.2991 0.0000 16926.0634 -4646.1968 534946.2959 16926.0634 -4646.1968
ENERGY: 880 161.4196 653.7284 2820.9827 0.0000 -203952.6631 22968.4452 54.5966 0.0000 0.0000 -177293.4906 0.0000 -177293.4906 -177293.4906 0.0000 16949.6573 -4639.9540 534946.2959 16949.6573 -4639.9540
ENERGY: 900 180.5495 668.9013 2818.5746 0.0000 -204476.8321 23199.2286 57.0174 0.0000 0.0000 -177552.5606 0.0000 -177552.5606 -177552.5606 0.0000 17093.1169 -4561.2063 534946.2959 17093.1169 -4561.2063
TCL: Setting parameter constraintScaling to 0.01953125
TCL: Minimizing for 100 steps
ETITLE: TS BOND ANGLE DIHED IMPRP ELECT VDW BOUNDARY MISC KINETIC TOTAL TEMP POTENTIAL TOTAL3 TEMPAVG PRESSURE GPRESSURE VOLUME PRESSAVG GPRESSAVG
ENERGY: 900 180.5495 668.9013 2818.5746 0.0000 -204476.8321 23199.2286 28.5087 0.0000 0.0000 -177581.0693 0.0000 -177581.0693 -177581.0693 0.0000 17116.7378 -27249.2257 534946.2959 17116.7378 -27249.2257
ENERGY: 920 176.0784 664.0258 2816.6496 0.0000 -204739.0529 23306.4684 29.5971 0.0000 0.0000 -177746.2335 0.0000 -177746.2335 -177746.2335 0.0000 17149.3254 -4532.2923 534946.2959 17149.3254 -4532.2923
ENERGY: 940 166.9319 653.0289 2811.8443 0.0000 -205159.8186 23490.2619 31.0945 0.0000 0.0000 -178006.6570 0.0000 -178006.6570 -178006.6570 0.0000 17225.7259 -4502.2766 534946.2959 17225.7259 -4502.2766
ENERGY: 960 202.0015 663.1775 2810.1522 0.0000 -205476.0708 23635.9787 31.8317 0.0000 0.0000 -178132.9293 0.0000 -178132.9293 -178132.9293 0.0000 17291.8239 -4470.0468 534946.2959 17291.8239 -4470.0468
ENERGY: 980 179.9197 655.1728 2810.7058 0.0000 -205888.8489 23815.0355 33.2865 0.0000 0.0000 -178394.7286 0.0000 -178394.7286 -178394.7286 0.0000 17370.2953 -4438.2015 534946.2959 17370.2953 -4438.2015
ENERGY: 1000 164.4864 648.8423 2807.0651 0.0000 -206384.3296 24048.9493 35.1248 0.0000 0.0000 -178679.8618 0.0000 -178679.8618 -178679.8618 0.0000 17508.6490 -4358.4865 534946.2959 17508.6490 -4358.4865
TCL: Setting parameter constraintScaling to 0
TCL: Minimizing for 5000 steps
ETITLE: TS BOND ANGLE DIHED IMPRP ELECT VDW BOUNDARY MISC KINETIC TOTAL TEMP POTENTIAL TOTAL3 TEMPAVG PRESSURE GPRESSURE VOLUME PRESSAVG GPRESSAVG
ENERGY: 1000 164.4864 648.8423 2807.0651 0.0000 -206384.3296 24048.9493 0.0000 0.0000 0.0000 -178714.9865 0.0000 -178714.9865 -178714.9865 0.0000 17535.7889 -27285.7836 534946.2959 17535.7889 -27285.7836
ENERGY: 2000 168.4912 660.5405 2799.5773 0.0000 -215184.9045 27921.5771 0.0000 0.0000 0.0000 -183634.7183 0.0000 -183634.7183 -183634.7183 0.0000 19599.3767 -3256.5777 534946.2959 19599.3767 -3256.5777
ENERGY: 3000 228.0734 681.5302 2797.1370 0.0000 -217671.8862 28974.8727 0.0000 0.0000 0.0000 -184990.2728 0.0000 -184990.2728 -184990.2728 0.0000 20178.0496 -2933.1795 534946.2959 20178.0496 -2933.1795
ENERGY: 4000 165.7271 662.5277 2790.5294 0.0000 -218938.1568 29503.0578 0.0000 0.0000 0.0000 -185816.3147 0.0000 -185816.3147 -185816.3147 0.0000 20441.3080 -2791.6501 534946.2959 20441.3080 -2791.6501
ENERGY: 5000 165.5643 663.3428 2784.2544 0.0000 -219581.8436 29726.2808 0.0000 0.0000 0.0000 -186242.4014 0.0000 -186242.4014 -186242.4014 0.0000 20553.3968 -2728.4548 534946.2959 20553.3968 -2728.4548
ENERGY: 6000 165.5683 660.2965 2782.1557 0.0000 -219932.2833 29869.5106 0.0000 0.0000 0.0000 -186454.7522 0.0000 -186454.7522 -186454.7522 0.0000 20631.7530 -2677.2140 534946.2959 20631.7530 -2677.2140
