Info: SIMULATION PARAMETERS:
Info: TIMESTEP               2
Info: NUMBER OF STEPS        0
Info: STEPS PER CYCLE        10
Info: PERIODIC CELL BASIS 1  72.449 0 0
Info: PERIODIC CELL BASIS 2  0 93.247 0
Info: PERIODIC CELL BASIS 3  0 0 79.185
Info: PERIODIC CELL CENTER   -0.248 -0.156 -0.047
Info: WRAPPING WATERS AROUND PERIODIC BOUNDARIES ON OUTPUT.
Info: WRAPPING ALL CLUSTERS AROUND PERIODIC BOUNDARIES ON OUTPUT.
Info: FIRST LDB TIMESTEP     50
Info: LAST LDB TIMESTEP     -1
Info: HOM BACKGROUND SCALING 1
Info: PME BACKGROUND SCALING 1
Info: MIN ATOMS PER PATCH    40
Info: INITIAL TEMPERATURE    0
Info: CENTER OF MASS MOVING INITIALLY? NO
Info: DIELECTRIC             1
Info: EXCLUDE                SCALED ONE-FOUR
Info: 1-4 ELECTROSTATICS SCALED BY 0.833333
Info: MODIFIED 1-4 VDW PARAMETERS WILL BE USED
Info: NO DCD TRAJECTORY OUTPUT
Info: NO EXTENDED SYSTEM TRAJECTORY OUTPUT
Info: NO VELOCITY DCD OUTPUT
Info: NO FORCE DCD OUTPUT
Info: OUTPUT FILENAME        ../replicas/rep105/equilibration/eq0
Info: NO RESTART FILE
Info: SWITCHING ACTIVE
Info: SWITCHING ON           10
Info: SWITCHING OFF          12
Info: PAIRLIST DISTANCE      13.5
Info: PAIRLIST SHRINK RATE   0.01
Info: PAIRLIST GROW RATE     0.01
Info: PAIRLIST TRIGGER       0.3
Info: PAIRLISTS PER CYCLE    2
Info: PAIRLISTS ENABLED
Info: MARGIN                 0
Info: HYDROGEN GROUP CUTOFF  2.5
Info: PATCH DIMENSION        16
Info: ENERGY OUTPUT STEPS    500
Info: CROSSTERM ENERGY INCLUDED IN DIHEDRAL
Info: TIMING OUTPUT STEPS    5000
Info: PRESSURE OUTPUT STEPS  500
Info: HARMONIC CONSTRAINTS ACTIVE
Info: HARMONIC CONS EXP      2
Info: HARMONIC CONS SCALING  10
Info: CONJUGATE GRADIENT MINIMIZATION ACTIVE
Info: LINE MINIMIZATION GOAL = 0.001
Info: BABY STEP SIZE = 0.01
Info: TINY STEP SIZE = 1e-06
Info: PARTICLE MESH EWALD (PME) ACTIVE
Info: PME TOLERANCE               1e-06
Info: PME EWALD COEFFICIENT       0.257952
Info: PME INTERPOLATION ORDER     4
Info: PME GRID DIMENSIONS         80 96 80
Info: PME MAXIMUM GRID SPACING    1
Info: FULL ELECTROSTATIC EVALUATION FREQUENCY      2
Info: USING VERLET I (r-RESPA) MTS SCHEME.
Info: C1 SPLITTING OF LONG RANGE ELECTROSTATICS
Info: PLACING ATOMS IN PATCHES BY HYDROGEN GROUPS
Info: RIGID BONDS TO HYDROGEN : ALL
Info:         ERROR TOLERANCE : 1e-05
Info:          MAX ITERATIONS : 100
Info: RIGID WATER USING SETTLE ALGORITHM
Info: RANDOM NUMBER SEED     1503708378
Info: USE HYDROGEN BONDS?    NO
Info: Using AMBER format force field!
Info: AMBER PARM FILE        ../build/complex.top
Info: COORDINATE PDB         ../build/complex.pdb
Info: Exclusions in PARM file will be ignored!
Info: SCNB (VDW SCALING)     2
Info: USING ARITHMETIC MEAN TO COMBINE L-J SIGMA PARAMETERS
Info: SUMMARY OF PARAMETERS:
Info: 71 BONDS
Info: 145 ANGLES
Info:   145 HARMONIC
Info:   0 COSINE-BASED
Info: 76 DIHEDRAL
Info: 0 IMPROPER
Info: 0 CROSSTERM
Info: 0 VDW
Info: 190 VDW_PAIRS
Info: 0 NBTHOLE_PAIRS
Info: STRUCTURE SUMMARY:
Info: 49394 ATOMS
Info: 49448 BONDS
Info: 8698 ANGLES
Info: 18780 DIHEDRALS
Info: 0 IMPROPERS
Info: 0 CROSSTERMS
Info: 0 EXCLUSIONS
Info: 2336 CONSTRAINTS
Info: 47058 RIGID BONDS
Info: 101124 DEGREES OF FREEDOM
Info: 17225 HYDROGEN GROUPS
Info: 4 ATOMS IN LARGEST HYDROGEN GROUP
Info: 17225 MIGRATION GROUPS
Info: 4 ATOMS IN LARGEST MIGRATION GROUP
Info: TOTAL MASS = 301478 amu
Info: TOTAL CHARGE = 1.00115e-05 e
Info: MASS DENSITY = 0.935846 g/cm^3
Info: ATOM DENSITY = 0.0923345 atoms/A^3
Info: ADDED 70656 IMPLICIT EXCLUSIONS
Info: NONBONDED TABLE R-SQUARED SPACING: 0.0625
Info: NONBONDED TABLE SIZE: 769 POINTS
Info: REMOVING COM VELOCITY 0 0 0
TCL: Minimizing for 100 steps
ETITLE: TS BOND ANGLE DIHED IMPRP ELECT VDW BOUNDARY MISC KINETIC TOTAL TEMP POTENTIAL TOTAL3 TEMPAVG PRESSURE GPRESSURE VOLUME PRESSAVG GPRESSAVG
ENERGY: 0 155.4176 1012.2698 2855.7272 0.0000 -154496.7911 207729.2052 0.0468 0.0000 0.0000 57255.8755 0.0000 57255.8755 57255.8755 0.0000 116350.2532 86546.1670 534946.2959 116350.2532 86546.1670
ENERGY: 20 304.7560 935.7912 2893.4663 0.0000 -158672.9411 17936.6590 143.9455 0.0000 0.0000 -136458.3230 0.0000 -136458.3230 -136458.3230 0.0000 16523.9383 -239.4563 534946.2959 16523.9383 -239.4563
ENERGY: 40 198.7439 799.5727 2896.9273 0.0000 -162811.4521 16417.9540 221.3030 0.0000 0.0000 -142276.9514 0.0000 -142276.9514 -142276.9514 0.0000 15011.2706 -2135.4694 534946.2959 15011.2706 -2135.4694
ENERGY: 60 130.5284 715.3440 2898.2166 0.0000 -167496.1540 15446.7544 315.2796 0.0000 0.0000 -147990.0310 0.0000 -147990.0310 -147990.0310 0.0000 13793.8843 -3799.3977 534946.2959 13793.8843 -3799.3977
ENERGY: 80 431.2719 765.6306 2904.3785 0.0000 -169937.5216 15121.1533 372.0121 0.0000 0.0000 -150343.0752 0.0000 -150343.0752 -150343.0752 0.0000 13270.3325 -4577.2420 534946.2959 13270.3325 -4577.2420
ENERGY: 100 129.7153 708.0656 2904.2780 0.0000 -171050.0663 15018.6531 384.2000 0.0000 0.0000 -151905.1544 0.0000 -151905.1544 -151905.1544 0.0000 13092.9127 -4843.6321 534946.2959 13092.9127 -4843.6321
TCL: Setting parameter constraintScaling to 5.0
TCL: Minimizing for 100 steps
ETITLE: TS BOND ANGLE DIHED IMPRP ELECT VDW BOUNDARY MISC KINETIC TOTAL TEMP POTENTIAL TOTAL3 TEMPAVG PRESSURE GPRESSURE VOLUME PRESSAVG GPRESSAVG
ENERGY: 100 129.7153 708.0656 2904.2780 0.0000 -171050.0663 15018.6531 192.1000 0.0000 0.0000 -152097.2544 0.0000 -152097.2544 -152097.2544 0.0000 13703.5078 -22944.4548 534946.2959 13703.5078 -22944.4548
ENERGY: 120 118.6827 680.2877 2909.9066 0.0000 -172396.3181 14830.1202 259.9551 0.0000 0.0000 -153597.3659 0.0000 -153597.3659 -153597.3659 0.0000 13320.9464 -4756.3086 534946.2959 13320.9464 -4756.3086
ENERGY: 140 109.1489 671.1467 2912.0864 0.0000 -174830.2999 14716.1435 337.7318 0.0000 0.0000 -156084.0425 0.0000 -156084.0425 -156084.0425 0.0000 12908.9531 -5423.1562 534946.2959 12908.9531 -5423.1562
ENERGY: 160 303.0253 691.2562 2915.1770 0.0000 -176082.5300 14739.2613 369.8378 0.0000 0.0000 -157063.9724 0.0000 -157063.9724 -157063.9724 0.0000 12780.5545 -5682.9828 534946.2959 12780.5545 -5682.9828
ENERGY: 180 182.1976 640.7499 2917.0631 0.0000 -177289.3478 14805.0526 391.8961 0.0000 0.0000 -158352.3884 0.0000 -158352.3884 -158352.3884 0.0000 12715.3642 -5872.1944 534946.2959 12715.3642 -5872.1944
ENERGY: 200 200.8082 672.8134 2923.8887 0.0000 -179263.1808 15029.6987 438.8879 0.0000 0.0000 -159997.0840 0.0000 -159997.0840 -159997.0840 0.0000 12652.1295 -6140.8954 534946.2959 12652.1295 -6140.8954
TCL: Setting parameter constraintScaling to 2.5
TCL: Minimizing for 100 steps
ETITLE: TS BOND ANGLE DIHED IMPRP ELECT VDW BOUNDARY MISC KINETIC TOTAL TEMP POTENTIAL TOTAL3 TEMPAVG PRESSURE GPRESSURE VOLUME PRESSAVG GPRESSAVG
ENERGY: 200 200.8082 672.8134 2923.8887 0.0000 -179263.1808 15029.6987 219.4439 0.0000 0.0000 -160216.5279 0.0000 -160216.5279 -160216.5279 0.0000 13194.6008 -25225.9321 534946.2959 13194.6008 -25225.9321
ENERGY: 220 129.4441 648.4286 2922.2171 0.0000 -180050.7012 15072.6266 269.1101 0.0000 0.0000 -161008.8747 0.0000 -161008.8747 -161008.8747 0.0000 13073.4366 -5814.6263 534946.2959 13073.4366 -5814.6263
ENERGY: 240 148.7080 630.0511 2922.2766 0.0000 -182011.2354 15361.3145 366.0691 0.0000 0.0000 -162582.8160 0.0000 -162582.8160 -162582.8160 0.0000 12907.0006 -6167.4963 534946.2959 12907.0006 -6167.4963
ENERGY: 260 225.6671 662.3431 2925.6657 0.0000 -183828.8423 15792.5026 453.5355 0.0000 0.0000 -163769.1282 0.0000 -163769.1282 -163769.1282 0.0000 12946.2843 -6339.8803 534946.2959 12946.2843 -6339.8803
ENERGY: 280 121.4611 633.4469 2921.9918 0.0000 -185453.7670 16338.9190 504.9867 0.0000 0.0000 -164932.9614 0.0000 -164932.9614 -164932.9614 0.0000 13109.5899 -6350.3962 534946.2959 13109.5899 -6350.3962
ENERGY: 300 146.0890 677.4553 2921.5515 0.0000 -186144.1906 16559.2405 447.2038 0.0000 0.0000 -165392.6505 0.0000 -165392.6505 -165392.6505 0.0000 13323.7898 -6214.7950 534946.2959 13323.7898 -6214.7950
TCL: Setting parameter constraintScaling to 1.25
TCL: Minimizing for 100 steps
ETITLE: TS BOND ANGLE DIHED IMPRP ELECT VDW BOUNDARY MISC KINETIC TOTAL TEMP POTENTIAL TOTAL3 TEMPAVG PRESSURE GPRESSURE VOLUME PRESSAVG GPRESSAVG
ENERGY: 300 146.0890 677.4553 2921.5515 0.0000 -186144.1906 16559.2405 223.6019 0.0000 0.0000 -165616.2523 0.0000 -165616.2523 -165616.2523 0.0000 13756.5984 -26248.7142 534946.2959 13756.5984 -26248.7142
ENERGY: 320 177.3103 662.5115 2927.5520 0.0000 -186639.7647 16622.7535 275.4523 0.0000 0.0000 -165974.1851 0.0000 -165974.1851 -165974.1851 0.0000 13632.5718 -5952.5395 534946.2959 13632.5718 -5952.5395
ENERGY: 340 230.3292 665.7502 2903.8202 0.0000 -187704.4968 16956.3197 307.5142 0.0000 0.0000 -166640.7634 0.0000 -166640.7634 -166640.7634 0.0000 13737.1753 -5966.5913 534946.2959 13737.1753 -5966.5913
ENERGY: 360 150.8964 640.1355 2901.0453 0.0000 -188926.1748 17335.3592 362.1058 0.0000 0.0000 -167536.6325 0.0000 -167536.6325 -167536.6325 0.0000 13852.9772 -6013.1142 534946.2959 13852.9772 -6013.1142
ENERGY: 380 153.0644 671.7908 2919.7794 0.0000 -189425.1018 17483.5723 383.1217 0.0000 0.0000 -167813.7732 0.0000 -167813.7732 -167813.7732 0.0000 13829.1113 -6075.3131 534946.2959 13829.1113 -6075.3131
ENERGY: 400 173.0321 632.7416 2899.3303 0.0000 -190805.7717 18048.1995 362.0299 0.0000 0.0000 -168690.4383 0.0000 -168690.4383 -168690.4383 0.0000 14176.1718 -5887.5099 534946.2959 14176.1718 -5887.5099
TCL: Setting parameter constraintScaling to 0.625
TCL: Minimizing for 100 steps
ETITLE: TS BOND ANGLE DIHED IMPRP ELECT VDW BOUNDARY MISC KINETIC TOTAL TEMP POTENTIAL TOTAL3 TEMPAVG PRESSURE GPRESSURE VOLUME PRESSAVG GPRESSAVG
ENERGY: 400 173.0321 632.7416 2899.3303 0.0000 -190805.7717 18048.1995 181.0150 0.0000 0.0000 -168871.4533 0.0000 -168871.4533 -168871.4533 0.0000 14463.4043 -26658.9793 534946.2959 14463.4043 -26658.9793
ENERGY: 420 340.3187 726.1420 2903.6878 0.0000 -191648.1204 18278.6524 239.7408 0.0000 0.0000 -169159.5787 0.0000 -169159.5787 -169159.5787 0.0000 14304.9523 -5810.6033 534946.2959 14304.9523 -5810.6033
ENERGY: 440 173.0800 668.7377 2884.1113 0.0000 -192176.8114 18464.9380 255.8308 0.0000 0.0000 -169730.1136 0.0000 -169730.1136 -169730.1136 0.0000 14539.6041 -5696.8644 534946.2959 14539.6041 -5696.8644
ENERGY: 460 162.7714 654.6057 2883.0912 0.0000 -193078.4334 18794.7162 289.6181 0.0000 0.0000 -170293.6307 0.0000 -170293.6307 -170293.6307 0.0000 14642.8220 -5689.3779 534946.2959 14642.8220 -5689.3779
ENERGY: 480 167.8979 664.9430 2886.8829 0.0000 -193358.9635 18900.8958 290.0893 0.0000 0.0000 -170448.2546 0.0000 -170448.2546 -170448.2546 0.0000 14667.4805 -5681.9203 534946.2959 14667.4805 -5681.9203
ENERGY: 500 178.4280 674.1999 2892.2999 0.0000 -194077.3366 19202.1697 289.1856 0.0000 0.0000 -170841.0535 0.0000 -170841.0535 -170841.0535 0.0000 14850.4987 -5583.0760 534946.2959 14850.4987 -5583.0760
TCL: Setting parameter constraintScaling to 0.3125
TCL: Minimizing for 100 steps
ETITLE: TS BOND ANGLE DIHED IMPRP ELECT VDW BOUNDARY MISC KINETIC TOTAL TEMP POTENTIAL TOTAL3 TEMPAVG PRESSURE GPRESSURE VOLUME PRESSAVG GPRESSAVG
ENERGY: 500 178.4280 674.1999 2892.2999 0.0000 -194077.3366 19202.1697 144.5928 0.0000 0.0000 -170985.6463 0.0000 -170985.6463 -170985.6463 0.0000 15041.0150 -26842.5854 534946.2959 15041.0150 -26842.5854
ENERGY: 520 153.7943 642.7804 2880.5403 0.0000 -194298.3432 19274.8922 151.0562 0.0000 0.0000 -171195.2797 0.0000 -171195.2797 -171195.2797 0.0000 15053.8479 -5403.4763 534946.2959 15053.8479 -5403.4763
ENERGY: 540 157.8947 650.4395 2875.0055 0.0000 -195135.6164 19554.1164 184.4361 0.0000 0.0000 -171713.7243 0.0000 -171713.7243 -171713.7243 0.0000 15101.7852 -5446.4557 534946.2959 15101.7852 -5446.4557
ENERGY: 560 179.6574 661.0487 2869.3334 0.0000 -196051.8017 19904.2826 203.6081 0.0000 0.0000 -172233.8715 0.0000 -172233.8715 -172233.8715 0.0000 15268.2518 -5390.2199 534946.2959 15268.2518 -5390.2199
ENERGY: 580 180.6523 657.8171 2871.4392 0.0000 -196434.8976 20066.8048 205.3995 0.0000 0.0000 -172452.7847 0.0000 -172452.7847 -172452.7847 0.0000 15334.7221 -5356.4448 534946.2959 15334.7221 -5356.4448
ENERGY: 600 147.3605 649.7330 2867.8909 0.0000 -197740.1806 20605.1800 218.3954 0.0000 0.0000 -173251.6208 0.0000 -173251.6208 -173251.6208 0.0000 15651.3285 -5213.4293 534946.2959 15651.3285 -5213.4293
TCL: Setting parameter constraintScaling to 0.15625
TCL: Minimizing for 100 steps
ETITLE: TS BOND ANGLE DIHED IMPRP ELECT VDW BOUNDARY MISC KINETIC TOTAL TEMP POTENTIAL TOTAL3 TEMPAVG PRESSURE GPRESSURE VOLUME PRESSAVG GPRESSAVG
ENERGY: 600 147.3605 649.7330 2867.8909 0.0000 -197740.1806 20605.1800 109.1977 0.0000 0.0000 -173360.8185 0.0000 -173360.8185 -173360.8185 0.0000 15773.5696 -26977.9698 534946.2959 15773.5696 -26977.9698
ENERGY: 620 228.0450 663.5705 2858.4272 0.0000 -197961.3779 20662.7329 116.4842 0.0000 0.0000 -173432.1181 0.0000 -173432.1181 -173432.1181 0.0000 15738.7094 -5133.8431 534946.2959 15738.7094 -5133.8431
ENERGY: 640 160.3154 639.3796 2858.1361 0.0000 -198189.5062 20734.5794 121.9679 0.0000 0.0000 -173675.1278 0.0000 -173675.1278 -173675.1278 0.0000 15764.4290 -5133.0073 534946.2959 15764.4290 -5133.0073
ENERGY: 660 185.3798 675.4261 2855.7752 0.0000 -198917.6530 20993.7564 136.9106 0.0000 0.0000 -174070.4048 0.0000 -174070.4048 -174070.4048 0.0000 15868.7808 -5131.5079 534946.2959 15868.7808 -5131.5079
ENERGY: 680 175.2149 661.1397 2855.7091 0.0000 -199342.3289 21153.8877 137.6238 0.0000 0.0000 -174358.7536 0.0000 -174358.7536 -174358.7536 0.0000 15965.6098 -5073.1882 534946.2959 15965.6098 -5073.1882
ENERGY: 700 150.6562 638.4925 2849.8355 0.0000 -199953.2733 21397.8558 141.8852 0.0000 0.0000 -174774.5481 0.0000 -174774.5481 -174774.5481 0.0000 16121.3917 -4991.3460 534946.2959 16121.3917 -4991.3460
TCL: Setting parameter constraintScaling to 0.078125
TCL: Minimizing for 100 steps
ETITLE: TS BOND ANGLE DIHED IMPRP ELECT VDW BOUNDARY MISC KINETIC TOTAL TEMP POTENTIAL TOTAL3 TEMPAVG PRESSURE GPRESSURE VOLUME PRESSAVG GPRESSAVG
ENERGY: 700 150.6562 638.4925 2849.8355 0.0000 -199953.2733 21397.8558 70.9426 0.0000 0.0000 -174845.4907 0.0000 -174845.4907 -174845.4907 0.0000 16193.0496 -27091.3343 534946.2959 16193.0496 -27091.3343
ENERGY: 720 155.5346 642.8422 2839.9278 0.0000 -200270.1950 21490.6772 77.1946 0.0000 0.0000 -175064.0186 0.0000 -175064.0186 -175064.0186 0.0000 16182.1897 -4971.2124 534946.2959 16182.1897 -4971.2124
ENERGY: 740 164.6614 655.9795 2838.5105 0.0000 -200742.7023 21662.9769 83.7650 0.0000 0.0000 -175336.8092 0.0000 -175336.8092 -175336.8092 0.0000 16239.3935 -4959.0547 534946.2959 16239.3935 -4959.0547
ENERGY: 760 310.5392 657.0130 2836.0591 0.0000 -201360.4003 21908.9430 86.6030 0.0000 0.0000 -175561.2431 0.0000 -175561.2431 -175561.2431 0.0000 16371.7900 -4899.6287 534946.2959 16371.7900 -4899.6287
ENERGY: 780 192.0969 660.8829 2833.7283 0.0000 -201452.5090 21931.7275 88.4688 0.0000 0.0000 -175745.6046 0.0000 -175745.6046 -175745.6046 0.0000 16385.4856 -4903.4180 534946.2959 16385.4856 -4903.4180
ENERGY: 800 181.1529 652.9487 2829.3508 0.0000 -201888.8432 22109.6520 92.8917 0.0000 0.0000 -176022.8471 0.0000 -176022.8471 -176022.8471 0.0000 16459.6849 -4876.3390 534946.2959 16459.6849 -4876.3390
TCL: Setting parameter constraintScaling to 0.0390625
TCL: Minimizing for 100 steps
ETITLE: TS BOND ANGLE DIHED IMPRP ELECT VDW BOUNDARY MISC KINETIC TOTAL TEMP POTENTIAL TOTAL3 TEMPAVG PRESSURE GPRESSURE VOLUME PRESSAVG GPRESSAVG
ENERGY: 800 181.1529 652.9487 2829.3508 0.0000 -201888.8432 22109.6520 46.4459 0.0000 0.0000 -176069.2930 0.0000 -176069.2930 -176069.2930 0.0000 16500.9904 -27232.9912 534946.2959 16500.9904 -27232.9912
ENERGY: 820 166.9106 664.6147 2831.9027 0.0000 -202003.1110 22145.9269 46.8037 0.0000 0.0000 -176146.9524 0.0000 -176146.9524 -176146.9524 0.0000 16518.7116 -4832.2954 534946.2959 16518.7116 -4832.2954
ENERGY: 840 167.2478 657.1274 2826.9178 0.0000 -202261.6661 22257.3821 47.8742 0.0000 0.0000 -176305.1168 0.0000 -176305.1168 -176305.1168 0.0000 16571.3770 -4800.5060 534946.2959 16571.3770 -4800.5060
ENERGY: 860 181.2693 663.9891 2825.5206 0.0000 -203009.1292 22555.6744 52.1038 0.0000 0.0000 -176730.5720 0.0000 -176730.5720 -176730.5720 0.0000 16725.7341 -4739.1899 534946.2959 16725.7341 -4739.1899
ENERGY: 880 164.5089 649.5559 2822.3654 0.0000 -203194.7808 22640.1591 53.0466 0.0000 0.0000 -176865.1449 0.0000 -176865.1449 -176865.1449 0.0000 16779.0230 -4710.0356 534946.2959 16779.0230 -4710.0356
ENERGY: 900 168.2303 668.3647 2819.0577 0.0000 -203567.7423 22807.1090 55.0777 0.0000 0.0000 -177049.9029 0.0000 -177049.9029 -177049.9029 0.0000 16845.6336 -4682.3451 534946.2959 16845.6336 -4682.3451
TCL: Setting parameter constraintScaling to 0.01953125
TCL: Minimizing for 100 steps
ETITLE: TS BOND ANGLE DIHED IMPRP ELECT VDW BOUNDARY MISC KINETIC TOTAL TEMP POTENTIAL TOTAL3 TEMPAVG PRESSURE GPRESSURE VOLUME PRESSAVG GPRESSAVG
ENERGY: 900 168.2303 668.3647 2819.0577 0.0000 -203567.7423 22807.1090 27.5389 0.0000 0.0000 -177077.4418 0.0000 -177077.4418 -177077.4418 0.0000 16868.7945 -27266.9628 534946.2959 16868.7945 -27266.9628
ENERGY: 920 193.0439 674.3085 2821.1418 0.0000 -203681.3278 22838.9159 27.8085 0.0000 0.0000 -177126.1092 0.0000 -177126.1092 -177126.1092 0.0000 16891.6760 -4656.8108 534946.2959 16891.6760 -4656.8108
ENERGY: 940 242.6990 664.4989 2817.2504 0.0000 -203884.3543 22933.2629 28.3791 0.0000 0.0000 -177198.2641 0.0000 -177198.2641 -177198.2641 0.0000 16924.0940 -4642.5061 534946.2959 16924.0940 -4642.5061
ENERGY: 960 234.6900 664.0876 2814.6164 0.0000 -204452.7752 23174.7757 30.0855 0.0000 0.0000 -177534.5200 0.0000 -177534.5200 -177534.5200 0.0000 17054.1441 -4584.1772 534946.2959 17054.1441 -4584.1772
ENERGY: 980 177.1652 660.7329 2815.6175 0.0000 -204658.2729 23265.7663 30.7086 0.0000 0.0000 -177708.2824 0.0000 -177708.2824 -177708.2824 0.0000 17113.9625 -4545.5260 534946.2959 17113.9625 -4545.5260
ENERGY: 1000 175.0712 658.3011 2810.8008 0.0000 -204977.2598 23410.5816 31.7309 0.0000 0.0000 -177890.7743 0.0000 -177890.7743 -177890.7743 0.0000 17170.0146 -4524.2611 534946.2959 17170.0146 -4524.2611
TCL: Setting parameter constraintScaling to 0
TCL: Minimizing for 5000 steps
ETITLE: TS BOND ANGLE DIHED IMPRP ELECT VDW BOUNDARY MISC KINETIC TOTAL TEMP POTENTIAL TOTAL3 TEMPAVG PRESSURE GPRESSURE VOLUME PRESSAVG GPRESSAVG
ENERGY: 1000 175.0712 658.3011 2810.8008 0.0000 -204977.2598 23410.5816 0.0000 0.0000 0.0000 -177922.5051 0.0000 -177922.5051 -177922.5051 0.0000 17195.4989 -27278.1996 534946.2959 17195.4989 -27278.1996
ENERGY: 2000 168.1016 665.2944 2803.9088 0.0000 -214663.7809 27796.9636 0.0000 0.0000 0.0000 -183229.5125 0.0000 -183229.5125 -183229.5125 0.0000 19549.9139 -3240.8114 534946.2959 19549.9139 -3240.8114
ENERGY: 3000 166.8160 664.0940 2797.1442 0.0000 -217466.4726 28890.4085 0.0000 0.0000 0.0000 -184948.0099 0.0000 -184948.0099 -184948.0099 0.0000 20123.2119 -2692.4601 534946.2959 20123.2119 -2692.4601
ENERGY: 4000 166.1200 663.6896 2791.0961 0.0000 -218820.5856 29449.4181 0.0000 0.0000 0.0000 -185750.2617 0.0000 -185750.2617 -185750.2617 0.0000 20412.8158 -2545.5094 534946.2959 20412.8158 -2545.5094
ENERGY: 5000 166.2141 664.2579 2787.3360 0.0000 -219484.3350 29701.4094 0.0000 0.0000 0.0000 -186165.1175 0.0000 -186165.1175 -186165.1175 0.0000 20548.3787 -2470.8346 534946.2959 20548.3787 -2470.8346
ENERGY: 6000 165.8465 665.3060 2788.3565 0.0000 -219908.6460 29879.7305 0.0000 0.0000 0.0000 -186409.4066 0.0000 -186409.4066 -186409.4066 0.0000 20650.0064 -2415.2832 534946.2959 20650.0064 -2415.2832
