Info: SIMULATION PARAMETERS:
Info: TIMESTEP               1
Info: NUMBER OF STEPS        0
Info: STEPS PER CYCLE        10
Info: PERIODIC CELL BASIS 1  72.449 0 0
Info: PERIODIC CELL BASIS 2  0 93.247 0
Info: PERIODIC CELL BASIS 3  0 0 79.185
Info: PERIODIC CELL CENTER   -0.248 -0.156 -0.047
Info: WRAPPING WATERS AROUND PERIODIC BOUNDARIES ON OUTPUT.
Info: WRAPPING ALL CLUSTERS AROUND PERIODIC BOUNDARIES ON OUTPUT.
Info: FIRST LDB TIMESTEP     50
Info: LAST LDB TIMESTEP     -1
Info: HOM BACKGROUND SCALING 1
Info: PME BACKGROUND SCALING 1
Info: MIN ATOMS PER PATCH    40
Info: VELOCITY FILE          ../replicas/rep12/equilibration/eq1.vel
Info: CENTER OF MASS MOVING INITIALLY? NO
Info: DIELECTRIC             1
Info: EXCLUDE                SCALED ONE-FOUR
Info: 1-4 ELECTROSTATICS SCALED BY 0.833333
Info: MODIFIED 1-4 VDW PARAMETERS WILL BE USED
Info: DCD FILENAME           ../replicas/rep12/equilibration/eq2.dcd
Info: DCD FREQUENCY          5000
Info: DCD FIRST STEP         5000
Info: DCD FILE WILL CONTAIN UNIT CELL DATA
Info: XST FILENAME           ../replicas/rep12/equilibration/eq2.xst
Info: XST FREQUENCY          5000
Info: NO VELOCITY DCD OUTPUT
Info: NO FORCE DCD OUTPUT
Info: OUTPUT FILENAME        ../replicas/rep12/equilibration/eq2
Info: RESTART FILENAME       ../replicas/rep12/equilibration/eq2.restart
Info: RESTART FREQUENCY      5000
Info: BINARY RESTART FILES WILL BE USED
Info: SWITCHING ACTIVE
Info: SWITCHING ON           10
Info: SWITCHING OFF          12
Info: PAIRLIST DISTANCE      13.5
Info: PAIRLIST SHRINK RATE   0.01
Info: PAIRLIST GROW RATE     0.01
Info: PAIRLIST TRIGGER       0.3
Info: PAIRLISTS PER CYCLE    2
Info: PAIRLISTS ENABLED
Info: MARGIN                 0.48
Info: HYDROGEN GROUP CUTOFF  2.5
Info: PATCH DIMENSION        16.48
Info: ENERGY OUTPUT STEPS    500
Info: CROSSTERM ENERGY INCLUDED IN DIHEDRAL
Info: TIMING OUTPUT STEPS    5000
Info: PRESSURE OUTPUT STEPS  500
Info: HARMONIC CONSTRAINTS ACTIVE
Info: HARMONIC CONS EXP      2
Info: HARMONIC CONS SCALING  10
Info: LANGEVIN DYNAMICS ACTIVE
Info: LANGEVIN TEMPERATURE   300
Info: LANGEVIN USING BBK INTEGRATOR
Info: LANGEVIN DAMPING COEFFICIENT IS 5 INVERSE PS
Info: LANGEVIN DYNAMICS NOT APPLIED TO HYDROGENS
Info: BERENDSEN PRESSURE COUPLING ACTIVE
Info:     TARGET PRESSURE IS 1 BAR
Info:     COMPRESSIBILITY ESTIMATE IS 4.57e-05 BAR^(-1)
Info:     RELAXATION TIME IS 100 FS
Info:     APPLIED EVERY 2 STEPS
Info:     PRESSURE CONTROL IS GROUP-BASED
Info:       CELL FLUCTUATION IS ISOTROPIC
Info: PARTICLE MESH EWALD (PME) ACTIVE
Info: PME TOLERANCE               1e-06
Info: PME EWALD COEFFICIENT       0.257952
Info: PME INTERPOLATION ORDER     4
Info: PME GRID DIMENSIONS         80 96 80
Info: PME MAXIMUM GRID SPACING    1
Info: FULL ELECTROSTATIC EVALUATION FREQUENCY      2
Info: USING VERLET I (r-RESPA) MTS SCHEME.
Info: C1 SPLITTING OF LONG RANGE ELECTROSTATICS
Info: PLACING ATOMS IN PATCHES BY HYDROGEN GROUPS
Info: RIGID BONDS TO HYDROGEN : WATER
Info:         ERROR TOLERANCE : 1e-05
Info:          MAX ITERATIONS : 100
Info: RIGID WATER USING SETTLE ALGORITHM
Info: RANDOM NUMBER SEED     1503693595
Info: USE HYDROGEN BONDS?    NO
Info: Using AMBER format force field!
Info: AMBER PARM FILE        ../build/complex.top
Info: COORDINATE PDB         ../replicas/rep12/equilibration/eq1.coor
Info: Exclusions in PARM file will be ignored!
Info: SCNB (VDW SCALING)     2
Info: USING ARITHMETIC MEAN TO COMBINE L-J SIGMA PARAMETERS
Info: SUMMARY OF PARAMETERS:
Info: 71 BONDS
Info: 145 ANGLES
Info: 76 DIHEDRAL
Info: 0 IMPROPER
Info: 0 CROSSTERM
Info: 0 VDW
Info: 190 VDW_PAIRS
Info: 0 NBTHOLE_PAIRS
Info: STRUCTURE SUMMARY:
Info: 49394 ATOMS
Info: 49448 BONDS
Info: 8698 ANGLES
Info: 18780 DIHEDRALS
Info: 0 IMPROPERS
Info: 0 CROSSTERMS
Info: 0 EXCLUSIONS
Info: 2336 CONSTRAINTS
Info: 44667 RIGID BONDS
Info: 103515 DEGREES OF FREEDOM
Info: 17225 HYDROGEN GROUPS
Info: 4 ATOMS IN LARGEST HYDROGEN GROUP
Info: 17225 MIGRATION GROUPS
Info: 4 ATOMS IN LARGEST MIGRATION GROUP
Info: TOTAL MASS = 301478 amu
Info: TOTAL CHARGE = 1.00115e-05 e
Info: MASS DENSITY = 0.935846 g/cm^3
Info: ATOM DENSITY = 0.0923345 atoms/A^3
Info: ADDED 70656 IMPLICIT EXCLUSIONS
Info: NONBONDED TABLE R-SQUARED SPACING: 0.0625
Info: NONBONDED TABLE SIZE: 769 POINTS
Info: REMOVING COM VELOCITY -0.0176209 -0.00568251 -0.00746828
TCL: Running for 5000 steps
ETITLE: TS BOND ANGLE DIHED IMPRP ELECT VDW BOUNDARY MISC KINETIC TOTAL TEMP POTENTIAL TOTAL3 TEMPAVG PRESSURE GPRESSURE VOLUME PRESSAVG GPRESSAVG
ENERGY: 0 381.5802 1211.7145 2920.9020 0.0000 -212660.5792 29481.7137 0.0000 0.0000 10040.8095 -168623.8594 97.6238 -178664.6688 -168614.2866 97.6238 -2360.7892 -2456.4009 534946.2959 -2360.7892 -2456.4009
ENERGY: 1000 1278.4432 1915.7171 3135.8250 0.0000 -193407.6741 26383.8004 773.1095 0.0000 24270.6445 -135650.1343 235.9763 -159920.7788 -135630.6939 219.9926 -146.3135 -31.2670 523216.8001 -8.6520 -8.6880
ENERGY: 2000 1438.1430 2093.9601 3133.8061 0.0000 -184215.8185 23368.6984 803.3221 0.0000 27991.4098 -125386.4791 272.1522 -153377.8888 -125343.0241 263.4927 -77.7918 25.5475 516532.8509 -33.4141 -33.6578
ENERGY: 3000 1535.4462 2204.1467 3147.1293 0.0000 -178999.4921 21442.4641 817.6794 0.0000 29259.9981 -120592.6283 284.4863 -149852.6264 -120548.7420 283.5282 -132.0965 -47.2487 510927.8507 -20.9890 -20.4677
ENERGY: 4000 1591.8356 2294.5907 3127.2151 0.0000 -176793.5133 20791.2945 832.0828 0.0000 30072.7322 -118083.7624 292.3883 -148156.4946 -118048.1899 294.4485 -64.9132 2.3614 508150.3595 -17.6640 -17.2748
ENERGY: 5000 1570.3317 2240.6475 3151.6907 0.0000 -175944.2555 20357.4803 835.0399 0.0000 30474.5777 -117314.4876 296.2953 -147789.0653 -117277.4767 296.7310 -37.0940 -27.4870 504546.1463 -16.2071 -16.7498
TCL: Setting parameter constraintScaling to 5.0
TCL: Running for 5000 steps
ETITLE: TS BOND ANGLE DIHED IMPRP ELECT VDW BOUNDARY MISC KINETIC TOTAL TEMP POTENTIAL TOTAL3 TEMPAVG PRESSURE GPRESSURE VOLUME PRESSAVG GPRESSAVG
ENERGY: 5000 1570.3317 2240.6475 3151.6907 0.0000 -175944.2555 20357.4803 417.5200 0.0000 30472.5489 -117734.0364 296.2756 -148206.5853 -117692.6858 296.2756 -130.0037 -122.2934 504546.1463 -130.0037 -122.2934
ENERGY: 6000 1560.2839 2325.7484 3167.9807 0.0000 -175409.5961 20167.7263 677.7504 0.0000 30723.9053 -116786.2009 298.7195 -147510.1063 -116738.6126 298.1738 -80.7408 -4.8071 503343.2328 -0.0858 0.7938
ENERGY: 7000 1640.4436 2304.3043 3174.4236 0.0000 -175272.4297 19913.7091 653.3879 0.0000 30668.1237 -116918.0375 298.1771 -147586.1612 -116880.0875 299.1901 -97.9529 -45.4582 503302.2409 -1.7373 -2.3476
ENERGY: 8000 1607.6099 2341.0183 3174.2876 0.0000 -175361.7155 19873.6875 657.4807 0.0000 30917.1799 -116790.4516 300.5986 -147707.6314 -116748.4665 299.4117 11.2953 -38.0148 502275.7844 10.4352 10.1425
ENERGY: 9000 1679.6670 2301.9518 3169.3803 0.0000 -175191.2400 19967.4926 641.7223 0.0000 30830.7635 -116600.2626 299.7584 -147431.0261 -116552.3042 300.4113 -91.6411 -31.4266 501384.6854 -10.7487 -10.5418
ENERGY: 10000 1620.8410 2291.6253 3175.6412 0.0000 -175888.6233 20464.4399 648.9164 0.0000 30985.4797 -116701.6798 301.2627 -147687.1595 -116649.8633 300.4200 -47.8203 54.9121 500590.0816 5.7221 5.2012
TCL: Setting parameter constraintScaling to 2.5
TCL: Running for 5000 steps
ETITLE: TS BOND ANGLE DIHED IMPRP ELECT VDW BOUNDARY MISC KINETIC TOTAL TEMP POTENTIAL TOTAL3 TEMPAVG PRESSURE GPRESSURE VOLUME PRESSAVG GPRESSAVG
ENERGY: 10000 1620.8410 2291.6253 3175.6412 0.0000 -175888.6233 20464.4399 324.4582 0.0000 30983.4216 -117028.1960 301.2427 -148011.6177 -116984.6401 301.2427 -25.7575 72.6379 500590.0816 -25.7575 72.6379
ENERGY: 11000 1601.8985 2358.1463 3175.7456 0.0000 -175487.1377 20193.5215 523.7598 0.0000 30814.3596 -116819.7063 299.5989 -147634.0659 -116760.2004 300.3807 27.7428 20.7537 500438.7395 -8.9592 -8.8652
ENERGY: 12000 1654.6261 2332.4263 3167.6308 0.0000 -175739.8529 20074.5900 513.6148 0.0000 30970.7508 -117026.2141 301.1195 -147996.9649 -116967.9987 299.9777 -88.1827 -81.9953 499064.9263 -7.8803 -7.8378
ENERGY: 13000 1621.5468 2329.0878 3190.6893 0.0000 -175142.0879 19857.2403 502.5995 0.0000 30757.5617 -116883.3623 299.0467 -147640.9240 -116829.7269 299.3077 -57.0244 35.6705 500963.5892 11.6691 11.7583
ENERGY: 14000 1662.0777 2312.7519 3153.9717 0.0000 -175662.3254 20020.7858 520.7356 0.0000 30748.6527 -117243.3500 298.9601 -147992.0027 -117202.3763 299.0773 -21.2460 -35.1375 500378.5483 -6.6247 -6.3647
ENERGY: 15000 1596.7078 2307.9806 3156.6091 0.0000 -175914.6533 20260.0308 514.5689 0.0000 30792.0263 -117286.7297 299.3818 -148078.7560 -117251.4420 299.5414 -2.3644 20.0430 499264.2657 5.6427 6.0257
TCL: Setting parameter constraintScaling to 1.25
TCL: Running for 5000 steps
ETITLE: TS BOND ANGLE DIHED IMPRP ELECT VDW BOUNDARY MISC KINETIC TOTAL TEMP POTENTIAL TOTAL3 TEMPAVG PRESSURE GPRESSURE VOLUME PRESSAVG GPRESSAVG
ENERGY: 15000 1596.7078 2307.9806 3156.6091 0.0000 -175914.6533 20260.0308 257.2845 0.0000 30789.9800 -117546.0605 299.3619 -148336.0405 -117500.3309 299.3619 -6.7615 17.6475 499264.2657 -6.7615 17.6475
ENERGY: 16000 1605.7257 2391.7270 3187.5626 0.0000 -175822.1558 20249.9664 412.4042 0.0000 30786.8846 -117187.8854 299.3318 -147974.7700 -117151.0863 299.8423 -12.6056 -20.2517 499934.2658 4.4935 4.5770
ENERGY: 17000 1606.5512 2437.8167 3216.8718 0.0000 -175721.4621 20307.1308 398.6897 0.0000 31068.9050 -116685.4970 302.0738 -147754.4020 -116635.0381 301.3752 17.8470 51.3857 500273.5047 4.4902 4.1188
ENERGY: 18000 1689.0925 2436.7980 3181.7925 0.0000 -175497.0509 20022.9455 415.7574 0.0000 30895.3509 -116855.3140 300.3864 -147750.6649 -116808.0462 300.4796 -136.4757 -54.9262 500561.7988 -0.0481 -0.6656
ENERGY: 19000 1617.8424 2381.9923 3212.9820 0.0000 -175371.2373 19931.4636 395.2498 0.0000 30942.1094 -116889.5978 300.8410 -147831.7072 -116837.0124 299.8980 -61.2386 -99.4047 500709.9076 7.6646 7.9942
ENERGY: 20000 1648.9741 2404.5283 3209.1991 0.0000 -175566.7050 20247.2573 407.5139 0.0000 30842.5427 -116806.6896 299.8729 -147649.2322 -116760.2944 300.4189 -60.2294 23.4813 499682.5368 0.9641 1.4035
TCL: Setting parameter constraintScaling to 0.625
TCL: Running for 5000 steps
ETITLE: TS BOND ANGLE DIHED IMPRP ELECT VDW BOUNDARY MISC KINETIC TOTAL TEMP POTENTIAL TOTAL3 TEMPAVG PRESSURE GPRESSURE VOLUME PRESSAVG GPRESSAVG
ENERGY: 20000 1648.9741 2404.5283 3209.1991 0.0000 -175566.7050 20247.2573 203.7570 0.0000 30840.5086 -117012.4806 299.8532 -147852.9892 -116970.1761 299.8532 -64.1962 19.7460 499682.5368 -64.1962 19.7460
ENERGY: 21000 1609.7262 2413.2928 3178.5405 0.0000 -175398.0409 20027.8615 325.8100 0.0000 30914.9145 -116927.8955 300.5766 -147842.8099 -116883.8712 300.7997 18.9412 38.3393 499225.8018 -6.4675 -6.5227
ENERGY: 22000 1661.3578 2435.7601 3221.2404 0.0000 -175632.8332 20073.8017 329.4971 0.0000 30978.2439 -116932.9321 301.1923 -147911.1761 -116884.4856 300.7947 -70.0648 -65.8808 499431.1219 3.7152 3.0884
ENERGY: 23000 1656.3499 2411.0177 3187.1885 0.0000 -176075.0581 20395.0138 307.2392 0.0000 31018.7249 -117099.5241 301.5859 -148118.2490 -117058.9317 300.5373 -34.6548 41.2646 497253.9747 -10.4137 -10.4682
ENERGY: 24000 1670.4215 2408.7887 3234.4729 0.0000 -175675.3076 20052.4294 307.3388 0.0000 30893.4524 -117108.4039 300.3679 -148001.8563 -117063.7658 300.9407 -81.8179 1.4722 497861.7186 -0.5460 -0.4974
ENERGY: 25000 1671.0581 2392.4641 3233.4253 0.0000 -175494.6806 20031.2781 317.9499 0.0000 30581.7649 -117266.7401 297.3375 -147848.5049 -117231.9285 299.4110 9.2628 16.5114 498634.4040 3.4765 3.8622
TCL: Setting parameter constraintScaling to 0.3125
TCL: Running for 5000 steps
ETITLE: TS BOND ANGLE DIHED IMPRP ELECT VDW BOUNDARY MISC KINETIC TOTAL TEMP POTENTIAL TOTAL3 TEMPAVG PRESSURE GPRESSURE VOLUME PRESSAVG GPRESSAVG
ENERGY: 25000 1671.0581 2392.4641 3233.4253 0.0000 -175494.6806 20031.2781 158.9750 0.0000 30579.7182 -117427.7617 297.3176 -148007.4799 -117385.0622 297.3176 -54.4877 -43.0251 498634.4040 -54.4877 -43.0251
ENERGY: 26000 1601.1432 2346.5522 3171.6439 0.0000 -175844.6611 20118.1169 245.4740 0.0000 30920.3876 -117441.3434 300.6298 -148361.7310 -117394.4169 299.2164 50.8468 36.9115 497844.4147 2.3791 1.5590
ENERGY: 27000 1613.3406 2436.7331 3206.5568 0.0000 -176281.6945 20283.6342 259.3500 0.0000 30790.4425 -117691.6372 299.3664 -148482.0797 -117652.0702 300.4580 -52.9060 19.5952 497676.5656 -2.4855 -2.7615
ENERGY: 28000 1621.3432 2402.6985 3212.7990 0.0000 -175724.4184 20110.8839 280.7934 0.0000 30761.6664 -117334.2340 299.0866 -148095.9004 -117284.6150 299.2129 18.8469 34.8629 498288.2933 4.2322 4.7819
ENERGY: 29000 1552.4118 2364.6831 3205.1812 0.0000 -176317.8519 20318.2527 262.8615 0.0000 30794.5712 -117819.8903 299.4065 -148614.4615 -117767.6095 299.0295 20.2855 9.1176 498123.3972 -3.6873 -3.3834
ENERGY: 30000 1619.8065 2399.6683 3190.6094 0.0000 -175822.5994 20172.0831 244.3025 0.0000 30830.1518 -117365.9779 299.7525 -148196.1297 -117324.2159 299.8120 69.6430 28.3535 497993.3453 4.6291 4.3746
TCL: Setting parameter constraintScaling to 0.15625
TCL: Running for 5000 steps
ETITLE: TS BOND ANGLE DIHED IMPRP ELECT VDW BOUNDARY MISC KINETIC TOTAL TEMP POTENTIAL TOTAL3 TEMPAVG PRESSURE GPRESSURE VOLUME PRESSAVG GPRESSAVG
ENERGY: 30000 1619.8065 2399.6683 3190.6094 0.0000 -175822.5994 20172.0831 122.1512 0.0000 30828.0816 -117490.1993 299.7323 -148318.2809 -117446.3611 299.7323 63.0086 23.2544 497993.3453 63.0086 23.2544
ENERGY: 31000 1619.2083 2446.3251 3178.3286 0.0000 -176040.3294 20192.6663 202.2923 0.0000 30658.9978 -117742.5110 298.0884 -148401.5088 -117689.0560 298.4614 49.6774 38.6791 498168.5784 -4.9327 -5.5757
ENERGY: 32000 1587.8497 2392.1393 3175.8371 0.0000 -175842.4836 20254.8045 199.0288 0.0000 30805.4122 -117427.4121 299.5119 -148232.8243 -117386.3373 300.0300 14.4945 50.9573 497492.3560 -2.3539 -2.3378
ENERGY: 33000 1595.9921 2345.6214 3198.2050 0.0000 -175774.5699 20105.5668 224.4855 0.0000 30700.1465 -117604.5526 298.4885 -148304.6991 -117551.4400 299.0479 12.6394 -7.5777 498267.5733 9.2588 9.0797
ENERGY: 34000 1632.5792 2367.3606 3238.3705 0.0000 -175891.9499 20051.8759 221.3826 0.0000 30903.6712 -117476.7100 300.4673 -148380.3812 -117426.5356 299.8596 -11.4318 -0.2800 498395.9946 5.0999 4.7282
ENERGY: 35000 1699.6897 2382.6204 3228.2849 0.0000 -175439.4324 19969.2585 215.2344 0.0000 30796.9480 -117147.3966 299.4296 -147944.3446 -117104.2986 300.5294 4.8003 57.0714 498526.3075 15.6933 14.9225
TCL: Setting parameter constraintScaling to 0.078125
TCL: Running for 5000 steps
ETITLE: TS BOND ANGLE DIHED IMPRP ELECT VDW BOUNDARY MISC KINETIC TOTAL TEMP POTENTIAL TOTAL3 TEMPAVG PRESSURE GPRESSURE VOLUME PRESSAVG GPRESSAVG
ENERGY: 35000 1699.6897 2382.6204 3228.2849 0.0000 -175439.4324 19969.2585 107.6172 0.0000 30794.8711 -117257.0907 299.4094 -148051.9618 -117216.2819 299.4094 -28.7621 19.7383 498526.3075 -28.7621 19.7383
ENERGY: 36000 1702.4242 2379.9355 3207.7265 0.0000 -175848.2876 20076.7448 171.4846 0.0000 30912.2661 -117397.7058 300.5508 -148309.9720 -117345.6503 300.1839 -43.9338 -5.7761 496462.3403 -1.4859 -1.1884
ENERGY: 37000 1648.9676 2411.0235 3204.1096 0.0000 -175773.9374 20046.3047 172.6279 0.0000 31078.5665 -117212.3374 302.1677 -148290.9040 -117171.5338 299.7182 -7.1393 79.9140 496515.9127 1.0083 1.1361
ENERGY: 38000 1712.3270 2406.1546 3170.9131 0.0000 -175743.2959 19842.7108 153.7713 0.0000 31045.7178 -117411.7014 301.8483 -148457.4192 -117367.4497 300.2618 -78.3729 -79.7894 497217.5387 4.3060 4.2302
ENERGY: 39000 1638.9388 2478.3099 3206.4075 0.0000 -175608.8677 19976.4293 165.6621 0.0000 30768.2156 -117374.9044 299.1503 -148143.1200 -117322.4181 300.6806 -100.2260 -35.9134 496905.2877 3.8745 4.1858
ENERGY: 40000 1691.0433 2432.9907 3194.9534 0.0000 -176327.3940 20147.5939 169.6691 0.0000 30718.8741 -117972.2696 298.6705 -148691.1437 -117929.7729 299.0238 -4.9310 30.4838 495754.3446 1.2431 0.8060
TCL: Setting parameter constraintScaling to 0.0390625
TCL: Running for 5000 steps
ETITLE: TS BOND ANGLE DIHED IMPRP ELECT VDW BOUNDARY MISC KINETIC TOTAL TEMP POTENTIAL TOTAL3 TEMPAVG PRESSURE GPRESSURE VOLUME PRESSAVG GPRESSAVG
ENERGY: 40000 1691.0433 2432.9907 3194.9534 0.0000 -176327.3940 20147.5939 84.8346 0.0000 30716.8345 -118059.1438 298.6507 -148775.9782 -118016.8411 298.6507 -28.4087 3.2530 495754.3446 -28.4087 3.2530
ENERGY: 41000 1662.4214 2429.1877 3185.5222 0.0000 -176539.9787 20187.2748 118.0710 0.0000 30889.4635 -118068.0380 300.3291 -148957.5014 -118016.0939 298.4748 74.0610 -27.0242 495203.0953 0.2733 -0.5670
ENERGY: 42000 1644.3697 2350.4392 3164.3364 0.0000 -175868.1579 20107.7413 133.6754 0.0000 30746.1243 -117721.4715 298.9355 -148467.5958 -117681.4527 299.4453 88.8051 103.7004 495315.4797 8.9947 9.1445
ENERGY: 43000 1621.6846 2403.9117 3205.8984 0.0000 -176226.6191 20118.9906 133.3697 0.0000 30756.4850 -117986.2790 299.0362 -148742.7641 -117936.7435 298.4054 14.7391 28.6702 496730.9947 8.5595 8.8361
ENERGY: 44000 1647.6638 2397.4902 3185.1155 0.0000 -176299.1448 20171.6507 137.5630 0.0000 30889.6558 -117870.0060 300.3310 -148759.6617 -117832.5757 299.3471 36.9779 99.8172 496889.4821 -4.4919 -4.3708
ENERGY: 45000 1661.3190 2430.6080 3193.1299 0.0000 -176138.2123 20116.4488 131.5238 0.0000 30765.0566 -117840.1262 299.1196 -148605.1829 -117789.8354 299.0779 37.9110 -15.0248 497851.1971 7.3901 7.2937
TCL: Setting parameter constraintScaling to 0.01953125
TCL: Running for 5000 steps
ETITLE: TS BOND ANGLE DIHED IMPRP ELECT VDW BOUNDARY MISC KINETIC TOTAL TEMP POTENTIAL TOTAL3 TEMPAVG PRESSURE GPRESSURE VOLUME PRESSAVG GPRESSAVG
ENERGY: 45000 1661.3190 2430.6080 3193.1299 0.0000 -176138.2123 20116.4488 65.7619 0.0000 30763.0274 -117907.9173 299.0998 -148670.9447 -117865.6124 299.0998 27.6471 -26.0396 497851.1971 27.6471 -26.0396
ENERGY: 46000 1726.9617 2386.7512 3216.0510 0.0000 -176049.9820 20144.3989 81.8746 0.0000 30924.2122 -117569.7324 300.6670 -148493.9446 -117505.3937 300.7535 -85.6357 -5.8651 497502.0518 -4.4431 -4.5316
ENERGY: 47000 1606.4138 2364.2049 3219.9978 0.0000 -175604.3179 19965.0269 82.4407 0.0000 30730.4593 -117635.7745 298.7832 -148366.2338 -117579.8360 300.4481 45.4780 108.7553 497858.3087 0.3071 0.0501
ENERGY: 48000 1657.2085 2402.2743 3220.2217 0.0000 -175875.5706 20040.7984 90.1297 0.0000 31028.9070 -117436.0309 301.6849 -148464.9379 -117402.9449 300.1942 -107.5100 -135.4861 497490.0112 -2.5462 -2.4032
ENERGY: 49000 1631.7959 2394.2989 3192.6306 0.0000 -176433.7144 20389.3719 88.9453 0.0000 30555.0313 -118181.6405 297.0775 -148736.6718 -118152.5198 298.6650 32.4963 32.3189 496793.2615 -3.3423 -2.7949
ENERGY: 50000 1658.3560 2397.6032 3207.7742 0.0000 -175952.2044 20015.8510 99.5383 0.0000 30760.0711 -117813.0107 299.0711 -148573.0818 -117771.4570 299.1972 17.7463 -17.1644 496973.9872 -5.6115 -6.0668
TCL: Setting parameter constraintScaling to 0
TCL: Running for 5000 steps
ETITLE: TS BOND ANGLE DIHED IMPRP ELECT VDW BOUNDARY MISC KINETIC TOTAL TEMP POTENTIAL TOTAL3 TEMPAVG PRESSURE GPRESSURE VOLUME PRESSAVG GPRESSAVG
ENERGY: 50000 1658.3560 2397.6032 3207.7742 0.0000 -175952.2044 20015.8510 0.0000 0.0000 30758.0259 -117914.5942 299.0512 -148672.6201 -117869.6422 299.0512 -5.8197 -43.3808 496973.9872 -5.8197 -43.3808
ENERGY: 51000 1621.0463 2345.5790 3212.9475 0.0000 -176521.3019 20252.5188 0.0000 0.0000 31106.9931 -117982.2172 302.4441 -149089.2103 -117935.4730 299.6656 -109.4825 -32.5778 496452.1451 -2.3665 -1.6903
ENERGY: 52000 1692.8485 2395.6152 3212.3984 0.0000 -175973.1338 20041.8563 0.0000 0.0000 30644.1905 -117986.2248 297.9444 -148630.4153 -117937.3518 299.1253 -39.8882 -45.4444 496921.0051 10.3655 10.4392
ENERGY: 53000 1690.1907 2428.5986 3233.6972 0.0000 -176003.4543 20075.7442 0.0000 0.0000 30751.9682 -117823.2554 298.9923 -148575.2236 -117785.0379 299.8690 -134.4055 -48.1181 497273.8252 6.8351 6.8097
ENERGY: 54000 1670.5501 2450.8422 3216.4078 0.0000 -176375.9681 20209.6057 0.0000 0.0000 30831.9100 -117996.6523 299.7696 -148828.5622 -117952.3083 299.3877 27.3506 50.8513 496710.7909 2.9899 3.0506
ENERGY: 55000 1672.2867 2406.4585 3199.6563 0.0000 -176411.5148 20048.7891 0.0000 0.0000 30691.0935 -118393.2307 298.4004 -149084.3242 -118342.8815 298.3287 8.1519 43.3348 494831.1613 -15.2793 -15.4215
