Info: SIMULATION PARAMETERS:
Info: TIMESTEP               2
Info: NUMBER OF STEPS        0
Info: STEPS PER CYCLE        10
Info: PERIODIC CELL BASIS 1  72.449 0 0
Info: PERIODIC CELL BASIS 2  0 93.247 0
Info: PERIODIC CELL BASIS 3  0 0 79.185
Info: PERIODIC CELL CENTER   -0.248 -0.156 -0.047
Info: WRAPPING WATERS AROUND PERIODIC BOUNDARIES ON OUTPUT.
Info: WRAPPING ALL CLUSTERS AROUND PERIODIC BOUNDARIES ON OUTPUT.
Info: FIRST LDB TIMESTEP     50
Info: LAST LDB TIMESTEP     -1
Info: HOM BACKGROUND SCALING 1
Info: PME BACKGROUND SCALING 1
Info: MIN ATOMS PER PATCH    40
Info: INITIAL TEMPERATURE    0
Info: CENTER OF MASS MOVING INITIALLY? NO
Info: DIELECTRIC             1
Info: EXCLUDE                SCALED ONE-FOUR
Info: 1-4 ELECTROSTATICS SCALED BY 0.833333
Info: MODIFIED 1-4 VDW PARAMETERS WILL BE USED
Info: NO DCD TRAJECTORY OUTPUT
Info: NO EXTENDED SYSTEM TRAJECTORY OUTPUT
Info: NO VELOCITY DCD OUTPUT
Info: NO FORCE DCD OUTPUT
Info: OUTPUT FILENAME        ../replicas/rep93/equilibration/eq0
Info: NO RESTART FILE
Info: SWITCHING ACTIVE
Info: SWITCHING ON           10
Info: SWITCHING OFF          12
Info: PAIRLIST DISTANCE      13.5
Info: PAIRLIST SHRINK RATE   0.01
Info: PAIRLIST GROW RATE     0.01
Info: PAIRLIST TRIGGER       0.3
Info: PAIRLISTS PER CYCLE    2
Info: PAIRLISTS ENABLED
Info: MARGIN                 0
Info: HYDROGEN GROUP CUTOFF  2.5
Info: PATCH DIMENSION        16
Info: ENERGY OUTPUT STEPS    500
Info: CROSSTERM ENERGY INCLUDED IN DIHEDRAL
Info: TIMING OUTPUT STEPS    5000
Info: PRESSURE OUTPUT STEPS  500
Info: HARMONIC CONSTRAINTS ACTIVE
Info: HARMONIC CONS EXP      2
Info: HARMONIC CONS SCALING  10
Info: CONJUGATE GRADIENT MINIMIZATION ACTIVE
Info: LINE MINIMIZATION GOAL = 0.001
Info: BABY STEP SIZE = 0.01
Info: TINY STEP SIZE = 1e-06
Info: PARTICLE MESH EWALD (PME) ACTIVE
Info: PME TOLERANCE               1e-06
Info: PME EWALD COEFFICIENT       0.257952
Info: PME INTERPOLATION ORDER     4
Info: PME GRID DIMENSIONS         80 96 80
Info: PME MAXIMUM GRID SPACING    1
Info: FULL ELECTROSTATIC EVALUATION FREQUENCY      2
Info: USING VERLET I (r-RESPA) MTS SCHEME.
Info: C1 SPLITTING OF LONG RANGE ELECTROSTATICS
Info: PLACING ATOMS IN PATCHES BY HYDROGEN GROUPS
Info: RIGID BONDS TO HYDROGEN : ALL
Info:         ERROR TOLERANCE : 1e-05
Info:          MAX ITERATIONS : 100
Info: RIGID WATER USING SETTLE ALGORITHM
Info: RANDOM NUMBER SEED     1503690981
Info: USE HYDROGEN BONDS?    NO
Info: Using AMBER format force field!
Info: AMBER PARM FILE        ../build/complex.top
Info: COORDINATE PDB         ../build/complex.pdb
Info: Exclusions in PARM file will be ignored!
Info: SCNB (VDW SCALING)     2
Info: USING ARITHMETIC MEAN TO COMBINE L-J SIGMA PARAMETERS
Info: SUMMARY OF PARAMETERS:
Info: 71 BONDS
Info: 145 ANGLES
Info: 76 DIHEDRAL
Info: 0 IMPROPER
Info: 0 CROSSTERM
Info: 0 VDW
Info: 190 VDW_PAIRS
Info: 0 NBTHOLE_PAIRS
Info: STRUCTURE SUMMARY:
Info: 49394 ATOMS
Info: 49448 BONDS
Info: 8698 ANGLES
Info: 18780 DIHEDRALS
Info: 0 IMPROPERS
Info: 0 CROSSTERMS
Info: 0 EXCLUSIONS
Info: 2336 CONSTRAINTS
Info: 47058 RIGID BONDS
Info: 101124 DEGREES OF FREEDOM
Info: 17225 HYDROGEN GROUPS
Info: 4 ATOMS IN LARGEST HYDROGEN GROUP
Info: 17225 MIGRATION GROUPS
Info: 4 ATOMS IN LARGEST MIGRATION GROUP
Info: TOTAL MASS = 301478 amu
Info: TOTAL CHARGE = 1.00115e-05 e
Info: MASS DENSITY = 0.935846 g/cm^3
Info: ATOM DENSITY = 0.0923345 atoms/A^3
Info: ADDED 70656 IMPLICIT EXCLUSIONS
Info: NONBONDED TABLE R-SQUARED SPACING: 0.0625
Info: NONBONDED TABLE SIZE: 769 POINTS
Info: REMOVING COM VELOCITY 0 0 0
TCL: Minimizing for 100 steps
ETITLE: TS BOND ANGLE DIHED IMPRP ELECT VDW BOUNDARY MISC KINETIC TOTAL TEMP POTENTIAL TOTAL3 TEMPAVG PRESSURE GPRESSURE VOLUME PRESSAVG GPRESSAVG
ENERGY: 0 155.4176 1012.2698 2855.7272 0.0000 -154496.7912 207729.2052 0.0468 0.0000 0.0000 57255.8754 0.0000 57255.8754 57255.8754 0.0000 116350.2532 86546.1670 534946.2959 116350.2532 86546.1670
ENERGY: 20 304.7558 935.7912 2893.4663 0.0000 -158672.9411 17936.6591 143.9455 0.0000 0.0000 -136458.3231 0.0000 -136458.3231 -136458.3231 0.0000 16523.9384 -239.4562 534946.2959 16523.9384 -239.4562
ENERGY: 40 198.7458 799.5730 2896.9273 0.0000 -162811.4524 16417.9539 221.3030 0.0000 0.0000 -142276.9496 0.0000 -142276.9496 -142276.9496 0.0000 15011.2704 -2135.4696 534946.2959 15011.2704 -2135.4696
ENERGY: 60 130.5281 715.3440 2898.2166 0.0000 -167496.1580 15446.7538 315.2796 0.0000 0.0000 -147990.0359 0.0000 -147990.0359 -147990.0359 0.0000 13793.8834 -3799.3990 534946.2959 13793.8834 -3799.3990
ENERGY: 80 431.2718 765.6305 2904.3787 0.0000 -169937.5327 15121.1520 372.0123 0.0000 0.0000 -150343.0873 0.0000 -150343.0873 -150343.0873 0.0000 13270.3299 -4577.2457 534946.2959 13270.3299 -4577.2457
ENERGY: 100 129.7131 708.0646 2904.2781 0.0000 -171050.0672 15018.6534 384.2001 0.0000 0.0000 -151905.1579 0.0000 -151905.1579 -151905.1579 0.0000 13092.9126 -4843.6315 534946.2959 13092.9126 -4843.6315
TCL: Setting parameter constraintScaling to 5.0
TCL: Minimizing for 100 steps
ETITLE: TS BOND ANGLE DIHED IMPRP ELECT VDW BOUNDARY MISC KINETIC TOTAL TEMP POTENTIAL TOTAL3 TEMPAVG PRESSURE GPRESSURE VOLUME PRESSAVG GPRESSAVG
ENERGY: 100 129.7131 708.0646 2904.2781 0.0000 -171050.0672 15018.6534 192.1001 0.0000 0.0000 -152097.2580 0.0000 -152097.2580 -152097.2580 0.0000 13703.5078 -22944.4549 534946.2959 13703.5078 -22944.4549
ENERGY: 120 118.6816 680.2874 2909.9066 0.0000 -172396.3132 14830.1205 259.9549 0.0000 0.0000 -153597.3621 0.0000 -153597.3621 -153597.3621 0.0000 13320.9475 -4756.3070 534946.2959 13320.9475 -4756.3070
ENERGY: 140 109.1478 671.1467 2912.0863 0.0000 -174830.2636 14716.1438 337.7308 0.0000 0.0000 -156084.0080 0.0000 -156084.0080 -156084.0080 0.0000 12908.9590 -5423.1464 534946.2959 12908.9590 -5423.1464
ENERGY: 160 125.8517 667.1506 2914.1925 0.0000 -175967.0338 14735.1338 362.9184 0.0000 0.0000 -157161.7867 0.0000 -157161.7867 -157161.7867 0.0000 12806.8963 -5642.7492 534946.2959 12806.8963 -5642.7492
ENERGY: 180 303.4908 659.6813 2917.2966 0.0000 -177408.7397 14815.0170 395.3832 0.0000 0.0000 -158317.8707 0.0000 -158317.8707 -158317.8707 0.0000 12699.3140 -5899.8541 534946.2959 12699.3140 -5899.8541
ENERGY: 200 109.2083 628.4695 2923.3580 0.0000 -179543.7649 15071.1415 441.8794 0.0000 0.0000 -160369.7083 0.0000 -160369.7083 -160369.7083 0.0000 12659.9907 -6150.1927 534946.2959 12659.9907 -6150.1927
TCL: Setting parameter constraintScaling to 2.5
TCL: Minimizing for 100 steps
ETITLE: TS BOND ANGLE DIHED IMPRP ELECT VDW BOUNDARY MISC KINETIC TOTAL TEMP POTENTIAL TOTAL3 TEMPAVG PRESSURE GPRESSURE VOLUME PRESSAVG GPRESSAVG
ENERGY: 200 109.2083 628.4695 2923.3580 0.0000 -179543.7649 15071.1415 220.9397 0.0000 0.0000 -160590.6480 0.0000 -160590.6480 -160590.6480 0.0000 13208.4126 -25269.3273 534946.2959 13208.4126 -25269.3273
ENERGY: 220 275.0206 652.0320 2925.2515 0.0000 -180394.9989 15108.8107 287.9218 0.0000 0.0000 -161145.9623 0.0000 -161145.9623 -161145.9623 0.0000 13000.0901 -5909.4299 534946.2959 13000.0901 -5909.4299
ENERGY: 240 144.4955 629.0441 2922.0903 0.0000 -181649.8767 15308.6513 331.5348 0.0000 0.0000 -162314.0607 0.0000 -162314.0607 -162314.0607 0.0000 12968.6241 -6070.9371 534946.2959 12968.6241 -6070.9371
ENERGY: 260 238.5786 648.2875 2922.1904 0.0000 -183610.3645 15752.9277 410.1426 0.0000 0.0000 -163638.2376 0.0000 -163638.2376 -163638.2376 0.0000 12997.5167 -6261.0145 534946.2959 12997.5167 -6261.0145
ENERGY: 280 182.8829 654.5854 2917.9275 0.0000 -184832.6779 16104.4296 431.2249 0.0000 0.0000 -164541.6276 0.0000 -164541.6276 -164541.6276 0.0000 13136.4722 -6264.3352 534946.2959 13136.4722 -6264.3352
ENERGY: 300 181.1550 672.5222 2923.2687 0.0000 -185739.3711 16391.6104 428.1009 0.0000 0.0000 -165142.7139 0.0000 -165142.7139 -165142.7139 0.0000 13254.1210 -6235.2090 534946.2959 13254.1210 -6235.2090
TCL: Setting parameter constraintScaling to 1.25
TCL: Minimizing for 100 steps
ETITLE: TS BOND ANGLE DIHED IMPRP ELECT VDW BOUNDARY MISC KINETIC TOTAL TEMP POTENTIAL TOTAL3 TEMPAVG PRESSURE GPRESSURE VOLUME PRESSAVG GPRESSAVG
ENERGY: 300 181.1550 672.5222 2923.2687 0.0000 -185739.3711 16391.6104 214.0504 0.0000 0.0000 -165356.7643 0.0000 -165356.7643 -165356.7643 0.0000 13669.8314 -26239.5680 534946.2959 13669.8314 -26239.5680
ENERGY: 320 164.9610 664.4808 2915.3166 0.0000 -186222.5224 16487.8478 249.7435 0.0000 0.0000 -165740.1727 0.0000 -165740.1727 -165740.1727 0.0000 13644.5618 -5908.3240 534946.2959 13644.5618 -5908.3240
ENERGY: 340 197.6454 678.6005 2911.1826 0.0000 -187458.2308 16820.6011 332.4308 0.0000 0.0000 -166517.7704 0.0000 -166517.7704 -166517.7704 0.0000 13598.1387 -6082.7922 534946.2959 13598.1387 -6082.7922
ENERGY: 360 226.5095 726.4859 2911.8728 0.0000 -188433.4300 17153.8331 344.7331 0.0000 0.0000 -167069.9957 0.0000 -167069.9957 -167069.9957 0.0000 13786.3940 -6027.7916 534946.2959 13786.3940 -6027.7916
ENERGY: 380 173.4017 689.2146 2918.2025 0.0000 -189219.5509 17475.0904 324.8871 0.0000 0.0000 -167638.7546 0.0000 -167638.7546 -167638.7546 0.0000 13974.5360 -5899.3742 534946.2959 13974.5360 -5899.3742
ENERGY: 400 228.3098 715.3788 2931.5754 0.0000 -191048.9910 18249.0321 336.4337 0.0000 0.0000 -168588.2612 0.0000 -168588.2612 -168588.2612 0.0000 14431.8146 -5681.6715 534946.2959 14431.8146 -5681.6715
TCL: Setting parameter constraintScaling to 0.625
TCL: Minimizing for 100 steps
ETITLE: TS BOND ANGLE DIHED IMPRP ELECT VDW BOUNDARY MISC KINETIC TOTAL TEMP POTENTIAL TOTAL3 TEMPAVG PRESSURE GPRESSURE VOLUME PRESSAVG GPRESSAVG
ENERGY: 400 228.3098 715.3788 2931.5754 0.0000 -191048.9910 18249.0321 168.2169 0.0000 0.0000 -168756.4781 0.0000 -168756.4781 -168756.4781 0.0000 14717.7417 -26458.9964 534946.2959 14717.7417 -26458.9964
ENERGY: 420 135.9919 640.0794 2906.3557 0.0000 -191237.3356 18263.7142 185.1338 0.0000 0.0000 -169106.0606 0.0000 -169106.0606 -169106.0606 0.0000 14582.7661 -5527.5464 534946.2959 14582.7661 -5527.5464
ENERGY: 440 149.5342 647.1283 2890.1142 0.0000 -191720.9308 18350.2126 230.8872 0.0000 0.0000 -169453.0543 0.0000 -169453.0543 -169453.0543 0.0000 14506.8482 -5666.2422 534946.2959 14506.8482 -5666.2422
ENERGY: 460 232.8815 672.5405 2893.4184 0.0000 -192689.3234 18650.9519 284.8235 0.0000 0.0000 -169954.7076 0.0000 -169954.7076 -169954.7076 0.0000 14513.2653 -5753.4688 534946.2959 14513.2653 -5753.4688
ENERGY: 480 288.7834 716.2800 2895.5025 0.0000 -193310.9760 18938.2271 267.1571 0.0000 0.0000 -170205.0260 0.0000 -170205.0260 -170205.0260 0.0000 14741.8154 -5606.3401 534946.2959 14741.8154 -5606.3401
ENERGY: 500 151.1787 674.6486 2917.0765 0.0000 -194209.0415 19369.1747 264.2216 0.0000 0.0000 -170832.7414 0.0000 -170832.7414 -170832.7414 0.0000 15056.5806 -5388.4988 534946.2959 15056.5806 -5388.4988
TCL: Setting parameter constraintScaling to 0.3125
TCL: Minimizing for 100 steps
ETITLE: TS BOND ANGLE DIHED IMPRP ELECT VDW BOUNDARY MISC KINETIC TOTAL TEMP POTENTIAL TOTAL3 TEMPAVG PRESSURE GPRESSURE VOLUME PRESSAVG GPRESSAVG
ENERGY: 500 151.1787 674.6486 2917.0765 0.0000 -194209.0415 19369.1747 132.1108 0.0000 0.0000 -170964.8522 0.0000 -170964.8522 -170964.8522 0.0000 15242.1762 -26671.4389 534946.2959 15242.1762 -26671.4389
ENERGY: 520 145.5931 633.9889 2878.1266 0.0000 -194564.0248 19382.7722 156.1424 0.0000 0.0000 -171367.4015 0.0000 -171367.4015 -171367.4015 0.0000 15108.2428 -5376.4669 534946.2959 15108.2428 -5376.4669
ENERGY: 540 201.2293 699.8925 2880.4761 0.0000 -195286.1847 19625.4817 188.8039 0.0000 0.0000 -171690.3012 0.0000 -171690.3012 -171690.3012 0.0000 15077.0997 -5470.2145 534946.2959 15077.0997 -5470.2145
ENERGY: 560 161.9325 661.8950 2874.7286 0.0000 -195400.9670 19655.8228 187.0503 0.0000 0.0000 -171859.5378 0.0000 -171859.5378 -171859.5378 0.0000 15173.6519 -5408.7474 534946.2959 15173.6519 -5408.7474
ENERGY: 580 194.6379 692.5465 2893.6808 0.0000 -196247.6082 20045.9059 186.6667 0.0000 0.0000 -172234.1703 0.0000 -172234.1703 -172234.1703 0.0000 15406.2653 -5269.4220 534946.2959 15406.2653 -5269.4220
ENERGY: 600 146.3612 721.2697 2917.1658 0.0000 -197387.9608 20593.5477 202.8260 0.0000 0.0000 -172806.7904 0.0000 -172806.7904 -172806.7904 0.0000 15788.8659 -5032.5519 534946.2959 15788.8659 -5032.5519
TCL: Setting parameter constraintScaling to 0.15625
TCL: Minimizing for 100 steps
ETITLE: TS BOND ANGLE DIHED IMPRP ELECT VDW BOUNDARY MISC KINETIC TOTAL TEMP POTENTIAL TOTAL3 TEMPAVG PRESSURE GPRESSURE VOLUME PRESSAVG GPRESSAVG
ENERGY: 600 146.3612 721.2697 2917.1658 0.0000 -197387.9608 20593.5477 101.4130 0.0000 0.0000 -172908.2034 0.0000 -172908.2034 -172908.2034 0.0000 15907.9524 -26755.2273 534946.2959 15907.9524 -26755.2273
ENERGY: 620 152.8995 661.0962 2863.5063 0.0000 -197688.9882 20569.6312 116.0591 0.0000 0.0000 -173325.7960 0.0000 -173325.7960 -173325.7960 0.0000 15753.6282 -5106.1248 534946.2959 15753.6282 -5106.1248
ENERGY: 640 168.9282 654.4167 2860.7636 0.0000 -197867.6183 20621.1916 121.9480 0.0000 0.0000 -173440.3702 0.0000 -173440.3702 -173440.3702 0.0000 15690.0384 -5170.5010 534946.2959 15690.0384 -5170.5010
ENERGY: 660 159.7719 671.4182 2859.6231 0.0000 -198183.6604 20721.2151 128.7932 0.0000 0.0000 -173642.8389 0.0000 -173642.8389 -173642.8389 0.0000 15745.3132 -5164.3443 534946.2959 15745.3132 -5164.3443
ENERGY: 680 166.1086 679.4733 2872.7455 0.0000 -198955.5899 21066.1749 129.5851 0.0000 0.0000 -174041.5025 0.0000 -174041.5025 -174041.5025 0.0000 16001.2011 -4998.0110 534946.2959 16001.2011 -4998.0110
ENERGY: 700 160.5230 704.6238 2881.7304 0.0000 -199347.9833 21242.2435 132.8285 0.0000 0.0000 -174226.0341 0.0000 -174226.0341 -174226.0341 0.0000 16159.5499 -4888.9938 534946.2959 16159.5499 -4888.9938
TCL: Setting parameter constraintScaling to 0.078125
TCL: Minimizing for 100 steps
ETITLE: TS BOND ANGLE DIHED IMPRP ELECT VDW BOUNDARY MISC KINETIC TOTAL TEMP POTENTIAL TOTAL3 TEMPAVG PRESSURE GPRESSURE VOLUME PRESSAVG GPRESSAVG
ENERGY: 700 160.5230 704.6238 2881.7304 0.0000 -199347.9833 21242.2435 66.4142 0.0000 0.0000 -174292.4483 0.0000 -174292.4483 -174292.4483 0.0000 16228.7975 -26896.7747 534946.2959 16228.7975 -26896.7747
ENERGY: 720 170.2740 650.7367 2855.1803 0.0000 -199520.3356 21234.4951 71.2948 0.0000 0.0000 -174538.3548 0.0000 -174538.3548 -174538.3548 0.0000 16023.2867 -5006.9959 534946.2959 16023.2867 -5006.9959
ENERGY: 740 204.0525 686.9406 2851.7058 0.0000 -199927.4787 21375.9125 79.0797 0.0000 0.0000 -174729.7875 0.0000 -174729.7875 -174729.7875 0.0000 15975.8719 -5092.8351 534946.2959 15975.8719 -5092.8351
ENERGY: 760 207.8058 690.7383 2848.1965 0.0000 -200321.3604 21499.9501 83.4019 0.0000 0.0000 -174991.2677 0.0000 -174991.2677 -174991.2677 0.0000 16137.3404 -5022.1089 534946.2959 16137.3404 -5022.1089
ENERGY: 780 154.2447 664.2028 2843.3685 0.0000 -200650.2096 21642.1327 81.6261 0.0000 0.0000 -175264.6348 0.0000 -175264.6348 -175264.6348 0.0000 16320.0617 -4885.3578 534946.2959 16320.0617 -4885.3578
ENERGY: 800 167.9933 673.2425 2855.0167 0.0000 -201405.7618 21969.9775 86.0900 0.0000 0.0000 -175653.4418 0.0000 -175653.4418 -175653.4418 0.0000 16452.9128 -4818.7856 534946.2959 16452.9128 -4818.7856
TCL: Setting parameter constraintScaling to 0.0390625
TCL: Minimizing for 100 steps
ETITLE: TS BOND ANGLE DIHED IMPRP ELECT VDW BOUNDARY MISC KINETIC TOTAL TEMP POTENTIAL TOTAL3 TEMPAVG PRESSURE GPRESSURE VOLUME PRESSAVG GPRESSAVG
ENERGY: 800 167.9933 673.2425 2855.0167 0.0000 -201405.7618 21969.9775 43.0450 0.0000 0.0000 -175696.4868 0.0000 -175696.4868 -175696.4868 0.0000 16493.3418 -27132.3192 534946.2959 16493.3418 -27132.3192
ENERGY: 820 324.6664 732.7629 2838.0581 0.0000 -201655.0714 22018.6287 46.6444 0.0000 0.0000 -175694.3109 0.0000 -175694.3109 -175694.3109 0.0000 16417.6735 -4879.5822 534946.2959 16417.6735 -4879.5822
ENERGY: 840 173.7635 669.6430 2833.9606 0.0000 -201813.0588 22073.4167 48.0376 0.0000 0.0000 -176014.2372 0.0000 -176014.2372 -176014.2372 0.0000 16460.2235 -4862.0654 534946.2959 16460.2235 -4862.0654
ENERGY: 860 174.5769 663.3639 2831.1491 0.0000 -202091.8365 22181.3007 49.4799 0.0000 0.0000 -176191.9659 0.0000 -176191.9659 -176191.9659 0.0000 16504.4691 -4847.6232 534946.2959 16504.4691 -4847.6232
ENERGY: 880 231.0643 679.3830 2845.2285 0.0000 -202696.5897 22470.9262 49.7580 0.0000 0.0000 -176420.2296 0.0000 -176420.2296 -176420.2296 0.0000 16706.6240 -4712.1592 534946.2959 16706.6240 -4712.1592
ENERGY: 900 183.7165 660.1813 2831.3282 0.0000 -203394.8579 22761.9334 53.8136 0.0000 0.0000 -176903.8850 0.0000 -176903.8850 -176903.8850 0.0000 16868.7173 -4639.2991 534946.2959 16868.7173 -4639.2991
TCL: Setting parameter constraintScaling to 0.01953125
TCL: Minimizing for 100 steps
ETITLE: TS BOND ANGLE DIHED IMPRP ELECT VDW BOUNDARY MISC KINETIC TOTAL TEMP POTENTIAL TOTAL3 TEMPAVG PRESSURE GPRESSURE VOLUME PRESSAVG GPRESSAVG
ENERGY: 900 183.7165 660.1813 2831.3282 0.0000 -203394.8579 22761.9334 26.9068 0.0000 0.0000 -176930.7917 0.0000 -176930.7917 -176930.7917 0.0000 16891.9238 -27208.7508 534946.2959 16891.9238 -27208.7508
ENERGY: 920 206.1881 680.5489 2820.0813 0.0000 -203713.8223 22863.4340 28.8602 0.0000 0.0000 -177114.7100 0.0000 -177114.7100 -177114.7100 0.0000 16881.6263 -4674.4044 534946.2959 16881.6263 -4674.4044
ENERGY: 940 210.8942 684.9971 2820.3116 0.0000 -204169.0415 23054.9213 30.4843 0.0000 0.0000 -177367.4331 0.0000 -177367.4331 -177367.4331 0.0000 16950.1101 -4644.1847 534946.2959 16950.1101 -4644.1847
ENERGY: 960 174.6209 662.4813 2812.8117 0.0000 -204518.8067 23208.7213 31.0298 0.0000 0.0000 -177629.1416 0.0000 -177629.1416 -177629.1416 0.0000 17070.8456 -4568.8229 534946.2959 17070.8456 -4568.8229
ENERGY: 980 160.6526 653.1776 2814.4847 0.0000 -204830.7644 23360.1318 31.5120 0.0000 0.0000 -177810.8058 0.0000 -177810.8058 -177810.8058 0.0000 17176.8525 -4503.3056 534946.2959 17176.8525 -4503.3056
ENERGY: 1000 171.2721 669.3043 2812.1343 0.0000 -205005.9878 23428.7797 32.4626 0.0000 0.0000 -177892.0348 0.0000 -177892.0348 -177892.0348 0.0000 17162.3394 -4533.1720 534946.2959 17162.3394 -4533.1720
TCL: Setting parameter constraintScaling to 0
TCL: Minimizing for 5000 steps
ETITLE: TS BOND ANGLE DIHED IMPRP ELECT VDW BOUNDARY MISC KINETIC TOTAL TEMP POTENTIAL TOTAL3 TEMPAVG PRESSURE GPRESSURE VOLUME PRESSAVG GPRESSAVG
ENERGY: 1000 171.2721 669.3043 2812.1343 0.0000 -205005.9878 23428.7797 0.0000 0.0000 0.0000 -177924.4974 0.0000 -177924.4974 -177924.4974 0.0000 17188.3210 -27293.1510 534946.2959 17188.3210 -27293.1510
ENERGY: 2000 168.3746 660.0272 2800.2653 0.0000 -214994.1414 27861.7345 0.0000 0.0000 0.0000 -183503.7398 0.0000 -183503.7398 -183503.7398 0.0000 19576.8902 -3253.9160 534946.2959 19576.8902 -3253.9160
ENERGY: 3000 225.1067 687.4919 2795.7609 0.0000 -217568.6888 28918.9155 0.0000 0.0000 0.0000 -184941.4138 0.0000 -184941.4138 -184941.4138 0.0000 20149.8173 -2957.1929 534946.2959 20149.8173 -2957.1929
ENERGY: 4000 164.8830 664.4663 2785.0809 0.0000 -218910.7855 29501.9453 0.0000 0.0000 0.0000 -185794.4098 0.0000 -185794.4098 -185794.4098 0.0000 20444.2238 -2799.0714 534946.2959 20444.2238 -2799.0714
ENERGY: 5000 165.6121 664.6625 2776.4479 0.0000 -219646.7620 29771.6147 0.0000 0.0000 0.0000 -186268.4247 0.0000 -186268.4247 -186268.4247 0.0000 20574.0536 -2725.1575 534946.2959 20574.0536 -2725.1575
ENERGY: 6000 166.4825 665.9942 2774.6767 0.0000 -220069.9994 29938.0598 0.0000 0.0000 0.0000 -186524.7862 0.0000 -186524.7862 -186524.7862 0.0000 20659.7181 -2681.2364 534946.2959 20659.7181 -2681.2364
