Info: SIMULATION PARAMETERS:
Info: TIMESTEP               2
Info: NUMBER OF STEPS        0
Info: STEPS PER CYCLE        10
Info: PERIODIC CELL BASIS 1  72.449 0 0
Info: PERIODIC CELL BASIS 2  0 93.247 0
Info: PERIODIC CELL BASIS 3  0 0 79.185
Info: PERIODIC CELL CENTER   -0.248 -0.156 -0.047
Info: WRAPPING WATERS AROUND PERIODIC BOUNDARIES ON OUTPUT.
Info: WRAPPING ALL CLUSTERS AROUND PERIODIC BOUNDARIES ON OUTPUT.
Info: FIRST LDB TIMESTEP     50
Info: LAST LDB TIMESTEP     -1
Info: HOM BACKGROUND SCALING 1
Info: PME BACKGROUND SCALING 1
Info: MIN ATOMS PER PATCH    40
Info: INITIAL TEMPERATURE    0
Info: CENTER OF MASS MOVING INITIALLY? NO
Info: DIELECTRIC             1
Info: EXCLUDE                SCALED ONE-FOUR
Info: 1-4 ELECTROSTATICS SCALED BY 0.833333
Info: MODIFIED 1-4 VDW PARAMETERS WILL BE USED
Info: NO DCD TRAJECTORY OUTPUT
Info: NO EXTENDED SYSTEM TRAJECTORY OUTPUT
Info: NO VELOCITY DCD OUTPUT
Info: NO FORCE DCD OUTPUT
Info: OUTPUT FILENAME        ../replicas/rep110/equilibration/eq0
Info: NO RESTART FILE
Info: SWITCHING ACTIVE
Info: SWITCHING ON           10
Info: SWITCHING OFF          12
Info: PAIRLIST DISTANCE      13.5
Info: PAIRLIST SHRINK RATE   0.01
Info: PAIRLIST GROW RATE     0.01
Info: PAIRLIST TRIGGER       0.3
Info: PAIRLISTS PER CYCLE    2
Info: PAIRLISTS ENABLED
Info: MARGIN                 0
Info: HYDROGEN GROUP CUTOFF  2.5
Info: PATCH DIMENSION        16
Info: ENERGY OUTPUT STEPS    500
Info: CROSSTERM ENERGY INCLUDED IN DIHEDRAL
Info: TIMING OUTPUT STEPS    5000
Info: PRESSURE OUTPUT STEPS  500
Info: HARMONIC CONSTRAINTS ACTIVE
Info: HARMONIC CONS EXP      2
Info: HARMONIC CONS SCALING  10
Info: CONJUGATE GRADIENT MINIMIZATION ACTIVE
Info: LINE MINIMIZATION GOAL = 0.001
Info: BABY STEP SIZE = 0.01
Info: TINY STEP SIZE = 1e-06
Info: PARTICLE MESH EWALD (PME) ACTIVE
Info: PME TOLERANCE               1e-06
Info: PME EWALD COEFFICIENT       0.257952
Info: PME INTERPOLATION ORDER     4
Info: PME GRID DIMENSIONS         80 96 80
Info: PME MAXIMUM GRID SPACING    1
Info: FULL ELECTROSTATIC EVALUATION FREQUENCY      2
Info: USING VERLET I (r-RESPA) MTS SCHEME.
Info: C1 SPLITTING OF LONG RANGE ELECTROSTATICS
Info: PLACING ATOMS IN PATCHES BY HYDROGEN GROUPS
Info: RIGID BONDS TO HYDROGEN : ALL
Info:         ERROR TOLERANCE : 1e-05
Info:          MAX ITERATIONS : 100
Info: RIGID WATER USING SETTLE ALGORITHM
Info: RANDOM NUMBER SEED     1503691734
Info: USE HYDROGEN BONDS?    NO
Info: Using AMBER format force field!
Info: AMBER PARM FILE        ../build/complex.top
Info: COORDINATE PDB         ../build/complex.pdb
Info: Exclusions in PARM file will be ignored!
Info: SCNB (VDW SCALING)     2
Info: USING ARITHMETIC MEAN TO COMBINE L-J SIGMA PARAMETERS
Info: SUMMARY OF PARAMETERS:
Info: 71 BONDS
Info: 145 ANGLES
Info: 76 DIHEDRAL
Info: 0 IMPROPER
Info: 0 CROSSTERM
Info: 0 VDW
Info: 190 VDW_PAIRS
Info: 0 NBTHOLE_PAIRS
Info: STRUCTURE SUMMARY:
Info: 49394 ATOMS
Info: 49448 BONDS
Info: 8698 ANGLES
Info: 18780 DIHEDRALS
Info: 0 IMPROPERS
Info: 0 CROSSTERMS
Info: 0 EXCLUSIONS
Info: 2336 CONSTRAINTS
Info: 47058 RIGID BONDS
Info: 101124 DEGREES OF FREEDOM
Info: 17225 HYDROGEN GROUPS
Info: 4 ATOMS IN LARGEST HYDROGEN GROUP
Info: 17225 MIGRATION GROUPS
Info: 4 ATOMS IN LARGEST MIGRATION GROUP
Info: TOTAL MASS = 301478 amu
Info: TOTAL CHARGE = 1.00115e-05 e
Info: MASS DENSITY = 0.935846 g/cm^3
Info: ATOM DENSITY = 0.0923345 atoms/A^3
Info: ADDED 70656 IMPLICIT EXCLUSIONS
Info: NONBONDED TABLE R-SQUARED SPACING: 0.0625
Info: NONBONDED TABLE SIZE: 769 POINTS
Info: REMOVING COM VELOCITY 0 0 0
TCL: Minimizing for 100 steps
ETITLE: TS BOND ANGLE DIHED IMPRP ELECT VDW BOUNDARY MISC KINETIC TOTAL TEMP POTENTIAL TOTAL3 TEMPAVG PRESSURE GPRESSURE VOLUME PRESSAVG GPRESSAVG
ENERGY: 0 155.4176 1012.2698 2855.7272 0.0000 -154496.7913 207729.2052 0.0468 0.0000 0.0000 57255.8753 0.0000 57255.8753 57255.8753 0.0000 116350.2532 86546.1670 534946.2959 116350.2532 86546.1670
ENERGY: 20 304.7560 935.7912 2893.4663 0.0000 -158672.9412 17936.6591 143.9455 0.0000 0.0000 -136458.3231 0.0000 -136458.3231 -136458.3231 0.0000 16523.9383 -239.4562 534946.2959 16523.9383 -239.4562
ENERGY: 40 198.7430 799.5726 2896.9273 0.0000 -162811.4519 16417.9540 221.3029 0.0000 0.0000 -142276.9521 0.0000 -142276.9521 -142276.9521 0.0000 15011.2707 -2135.4693 534946.2959 15011.2707 -2135.4693
ENERGY: 60 130.5285 715.3440 2898.2166 0.0000 -167496.1531 15446.7546 315.2795 0.0000 0.0000 -147990.0299 0.0000 -147990.0299 -147990.0299 0.0000 13793.8846 -3799.3974 534946.2959 13793.8846 -3799.3974
ENERGY: 80 431.2729 765.6306 2904.3785 0.0000 -169937.5251 15121.1528 372.0122 0.0000 0.0000 -150343.0781 0.0000 -150343.0781 -150343.0781 0.0000 13270.3321 -4577.2428 534946.2959 13270.3321 -4577.2428
ENERGY: 100 129.7153 708.0656 2904.2780 0.0000 -171050.0660 15018.6532 384.2000 0.0000 0.0000 -151905.1539 0.0000 -151905.1539 -151905.1539 0.0000 13092.9129 -4843.6318 534946.2959 13092.9129 -4843.6318
TCL: Setting parameter constraintScaling to 5.0
TCL: Minimizing for 100 steps
ETITLE: TS BOND ANGLE DIHED IMPRP ELECT VDW BOUNDARY MISC KINETIC TOTAL TEMP POTENTIAL TOTAL3 TEMPAVG PRESSURE GPRESSURE VOLUME PRESSAVG GPRESSAVG
ENERGY: 100 129.7153 708.0656 2904.2780 0.0000 -171050.0660 15018.6532 192.1000 0.0000 0.0000 -152097.2539 0.0000 -152097.2539 -152097.2539 0.0000 13703.5080 -22944.4546 534946.2959 13703.5080 -22944.4546
ENERGY: 120 118.6826 680.2877 2909.9066 0.0000 -172396.3166 14830.1203 259.9550 0.0000 0.0000 -153597.3644 0.0000 -153597.3644 -153597.3644 0.0000 13320.9468 -4756.3080 534946.2959 13320.9468 -4756.3080
ENERGY: 140 109.1491 671.1470 2912.0864 0.0000 -174830.2831 14716.1437 337.7313 0.0000 0.0000 -156084.0256 0.0000 -156084.0256 -156084.0256 0.0000 12908.9555 -5423.1522 534946.2959 12908.9555 -5423.1522
ENERGY: 160 125.8545 667.1496 2914.1927 0.0000 -175967.0008 14735.1323 362.9177 0.0000 0.0000 -157161.7540 0.0000 -157161.7540 -157161.7540 0.0000 12806.9009 -5644.7497 534946.2959 12806.9009 -5644.7497
ENERGY: 180 303.5227 659.6757 2917.2962 0.0000 -177408.6493 14815.0103 395.3815 0.0000 0.0000 -158317.7628 0.0000 -158317.7628 -158317.7628 0.0000 12699.3184 -5901.8246 534946.2959 12699.3184 -5901.8246
ENERGY: 200 109.2123 628.4809 2923.3603 0.0000 -179544.3278 15071.2360 441.8955 0.0000 0.0000 -160370.1428 0.0000 -160370.1428 -160370.1428 0.0000 12659.9884 -6162.8082 534946.2959 12659.9884 -6162.8082
TCL: Setting parameter constraintScaling to 2.5
TCL: Minimizing for 100 steps
ETITLE: TS BOND ANGLE DIHED IMPRP ELECT VDW BOUNDARY MISC KINETIC TOTAL TEMP POTENTIAL TOTAL3 TEMPAVG PRESSURE GPRESSURE VOLUME PRESSAVG GPRESSAVG
ENERGY: 200 109.2123 628.4809 2923.3603 0.0000 -179544.3278 15071.2360 220.9478 0.0000 0.0000 -160591.0906 0.0000 -160591.0906 -160591.0906 0.0000 13208.4222 -25281.9959 534946.2959 13208.4222 -25281.9959
ENERGY: 220 169.2651 639.7345 2924.9644 0.0000 -180454.0912 15113.9697 291.3255 0.0000 0.0000 -161314.8322 0.0000 -161314.8322 -161314.8322 0.0000 13002.2526 -5925.6618 534946.2959 13002.2526 -5925.6618
ENERGY: 240 251.9037 643.1471 2921.3950 0.0000 -181894.6949 15359.0729 339.5357 0.0000 0.0000 -162379.6404 0.0000 -162379.6404 -162379.6404 0.0000 12964.2078 -6118.6063 534946.2959 12964.2078 -6118.6063
ENERGY: 260 173.9763 639.0023 2923.9337 0.0000 -184191.6636 15911.0490 438.0383 0.0000 0.0000 -164105.6640 0.0000 -164105.6640 -164105.6640 0.0000 13009.6540 -6317.4654 534946.2959 13009.6540 -6317.4654
ENERGY: 280 330.5822 683.9473 2917.5646 0.0000 -184868.9460 16116.2055 428.9912 0.0000 0.0000 -164391.6552 0.0000 -164391.6552 -164391.6552 0.0000 13134.7733 -6282.7785 534946.2959 13134.7733 -6282.7785
ENERGY: 300 138.6857 659.5037 2924.7994 0.0000 -186085.4060 16506.5772 425.6910 0.0000 0.0000 -165430.1490 0.0000 -165430.1490 -165430.1490 0.0000 13325.5351 -6220.6575 534946.2959 13325.5351 -6220.6575
TCL: Setting parameter constraintScaling to 1.25
TCL: Minimizing for 100 steps
ETITLE: TS BOND ANGLE DIHED IMPRP ELECT VDW BOUNDARY MISC KINETIC TOTAL TEMP POTENTIAL TOTAL3 TEMPAVG PRESSURE GPRESSURE VOLUME PRESSAVG GPRESSAVG
ENERGY: 300 138.6857 659.5037 2924.7994 0.0000 -186085.4060 16506.5772 212.8455 0.0000 0.0000 -165642.9945 0.0000 -165642.9945 -165642.9945 0.0000 13738.3291 -26268.0531 534946.2959 13738.3291 -26268.0531
ENERGY: 320 242.6794 686.7637 2911.6929 0.0000 -187126.7191 16753.5872 287.3064 0.0000 0.0000 -166244.6895 0.0000 -166244.6895 -166244.6895 0.0000 13690.7517 -5989.4714 534946.2959 13690.7517 -5989.4714
ENERGY: 340 218.8356 698.7376 2910.9766 0.0000 -188388.9430 17124.6095 356.8210 0.0000 0.0000 -167078.9628 0.0000 -167078.9628 -167078.9628 0.0000 13706.3252 -6088.3765 534946.2959 13706.3252 -6088.3765
ENERGY: 360 142.5048 648.5210 2903.9013 0.0000 -188598.8307 17209.5944 349.2384 0.0000 0.0000 -167345.0708 0.0000 -167345.0708 -167345.0708 0.0000 13793.5301 -6032.6387 534946.2959 13793.5301 -6032.6387
ENERGY: 380 154.2303 645.3459 2904.1824 0.0000 -189852.7767 17675.3463 346.7348 0.0000 0.0000 -168126.9370 0.0000 -168126.9370 -168126.9370 0.0000 14055.6212 -5934.7368 534946.2959 14055.6212 -5934.7368
ENERGY: 400 201.3263 679.9890 2907.4210 0.0000 -192138.8845 18633.4925 389.9134 0.0000 0.0000 -169326.7421 0.0000 -169326.7421 -169326.7421 0.0000 14443.4296 -5789.7001 534946.2959 14443.4296 -5789.7001
TCL: Setting parameter constraintScaling to 0.625
TCL: Minimizing for 100 steps
ETITLE: TS BOND ANGLE DIHED IMPRP ELECT VDW BOUNDARY MISC KINETIC TOTAL TEMP POTENTIAL TOTAL3 TEMPAVG PRESSURE GPRESSURE VOLUME PRESSAVG GPRESSAVG
ENERGY: 400 201.3263 679.9890 2907.4210 0.0000 -192138.8845 18633.4925 194.9567 0.0000 0.0000 -169521.6988 0.0000 -169521.6988 -169521.6988 0.0000 14740.6923 -26707.2530 534946.2959 14740.6923 -26707.2530
ENERGY: 420 150.5261 639.0050 2888.5574 0.0000 -192384.3740 18664.9974 218.6333 0.0000 0.0000 -169822.6547 0.0000 -169822.6547 -169822.6547 0.0000 14730.8285 -5533.2468 534946.2959 14730.8285 -5533.2468
ENERGY: 440 188.1270 677.7611 2895.1842 0.0000 -193084.0658 18853.1126 260.8845 0.0000 0.0000 -170208.9964 0.0000 -170208.9964 -170208.9964 0.0000 14694.3188 -5624.4671 534946.2959 14694.3188 -5624.4671
ENERGY: 460 181.5002 657.6664 2884.4483 0.0000 -193491.7105 19023.8299 261.4501 0.0000 0.0000 -170482.8157 0.0000 -170482.8157 -170482.8157 0.0000 14779.5107 -5586.2887 534946.2959 14779.5107 -5586.2887
ENERGY: 480 326.2277 709.5770 2893.6111 0.0000 -194618.6239 19445.5134 289.8600 0.0000 0.0000 -170953.8347 0.0000 -170953.8347 -170953.8347 0.0000 14976.5548 -5544.6866 534946.2959 14976.5548 -5544.6866
ENERGY: 500 183.5303 676.6908 2887.4172 0.0000 -195461.4306 19781.1349 319.4385 0.0000 0.0000 -171613.2189 0.0000 -171613.2189 -171613.2189 0.0000 15113.3427 -5493.5868 534946.2959 15113.3427 -5493.5868
TCL: Setting parameter constraintScaling to 0.3125
TCL: Minimizing for 100 steps
ETITLE: TS BOND ANGLE DIHED IMPRP ELECT VDW BOUNDARY MISC KINETIC TOTAL TEMP POTENTIAL TOTAL3 TEMPAVG PRESSURE GPRESSURE VOLUME PRESSAVG GPRESSAVG
ENERGY: 500 183.5303 676.6908 2887.4172 0.0000 -195461.4306 19781.1349 159.7193 0.0000 0.0000 -171772.9382 0.0000 -171772.9382 -171772.9382 0.0000 15312.3921 -26904.7701 534946.2959 15312.3921 -26904.7701
ENERGY: 520 151.3946 637.1880 2873.7335 0.0000 -195653.3638 19846.2863 164.8944 0.0000 0.0000 -171979.8672 0.0000 -171979.8672 -171979.8672 0.0000 15336.0331 -5278.6302 534946.2959 15336.0331 -5278.6302
ENERGY: 540 183.6560 678.5767 2872.7587 0.0000 -196320.0658 20069.6138 194.5192 0.0000 0.0000 -172320.9415 0.0000 -172320.9415 -172320.9415 0.0000 15345.6150 -5348.9244 534946.2959 15345.6150 -5348.9244
ENERGY: 560 225.2222 694.8666 2865.1819 0.0000 -196844.1263 20252.4530 206.3021 0.0000 0.0000 -172600.1005 0.0000 -172600.1005 -172600.1005 0.0000 15420.8530 -5350.6465 534946.2959 15420.8530 -5350.6465
ENERGY: 580 244.4562 695.8832 2885.9850 0.0000 -197535.3821 20556.7937 201.6683 0.0000 0.0000 -172950.5958 0.0000 -172950.5958 -172950.5958 0.0000 15615.2124 -5235.5544 534946.2959 15615.2124 -5235.5544
ENERGY: 600 146.0330 659.5807 2886.1525 0.0000 -197905.5199 20721.3372 205.4683 0.0000 0.0000 -173286.9482 0.0000 -173286.9482 -173286.9482 0.0000 15746.4323 -5142.5528 534946.2959 15746.4323 -5142.5528
TCL: Setting parameter constraintScaling to 0.15625
TCL: Minimizing for 100 steps
ETITLE: TS BOND ANGLE DIHED IMPRP ELECT VDW BOUNDARY MISC KINETIC TOTAL TEMP POTENTIAL TOTAL3 TEMPAVG PRESSURE GPRESSURE VOLUME PRESSAVG GPRESSAVG
ENERGY: 600 146.0330 659.5807 2886.1525 0.0000 -197905.5199 20721.3372 102.7342 0.0000 0.0000 -173389.6823 0.0000 -173389.6823 -173389.6823 0.0000 15865.3267 -26937.2429 534946.2959 15865.3267 -26937.2429
ENERGY: 620 169.7824 652.8809 2857.9586 0.0000 -198131.0495 20738.3592 111.6907 0.0000 0.0000 -173600.3777 0.0000 -173600.3777 -173600.3777 0.0000 15804.9204 -5090.9948 534946.2959 15804.9204 -5090.9948
ENERGY: 640 162.9956 686.7185 2869.8039 0.0000 -198665.1014 20904.8819 129.2356 0.0000 0.0000 -173911.4659 0.0000 -173911.4659 -173911.4659 0.0000 15806.9926 -5155.4522 534946.2959 15806.9926 -5155.4522
ENERGY: 660 170.1373 660.8096 2849.3505 0.0000 -198919.2972 21004.0802 128.7560 0.0000 0.0000 -174106.1636 0.0000 -174106.1636 -174106.1636 0.0000 15886.0137 -5099.4809 534946.2959 15886.0137 -5099.4809
ENERGY: 680 166.7351 653.3829 2858.3144 0.0000 -199319.8118 21152.6071 131.2613 0.0000 0.0000 -174357.5111 0.0000 -174357.5111 -174357.5111 0.0000 15972.1426 -5074.1498 534946.2959 15972.1426 -5074.1498
ENERGY: 700 230.1829 676.7171 2846.1221 0.0000 -200899.9508 21823.8960 154.6803 0.0000 0.0000 -175168.3524 0.0000 -175168.3524 -175168.3524 0.0000 16324.1314 -4915.2266 534946.2959 16324.1314 -4915.2266
TCL: Setting parameter constraintScaling to 0.078125
TCL: Minimizing for 100 steps
ETITLE: TS BOND ANGLE DIHED IMPRP ELECT VDW BOUNDARY MISC KINETIC TOTAL TEMP POTENTIAL TOTAL3 TEMPAVG PRESSURE GPRESSURE VOLUME PRESSAVG GPRESSAVG
ENERGY: 700 230.1829 676.7171 2846.1221 0.0000 -200899.9508 21823.8960 77.3401 0.0000 0.0000 -175245.6926 0.0000 -175245.6926 -175245.6926 0.0000 16398.2691 -27116.9495 534946.2959 16398.2691 -27116.9495
ENERGY: 720 156.5307 642.5537 2843.7719 0.0000 -200968.2374 21819.1742 78.8497 0.0000 0.0000 -175427.3571 0.0000 -175427.3571 -175427.3571 0.0000 16367.0439 -4864.9009 534946.2959 16367.0439 -4864.9009
ENERGY: 740 164.2469 661.1732 2837.4127 0.0000 -201323.9106 21927.9734 85.1853 0.0000 0.0000 -175647.9191 0.0000 -175647.9191 -175647.9191 0.0000 16386.6244 -4893.9092 534946.2959 16386.6244 -4893.9092
ENERGY: 760 163.0273 658.3011 2836.1233 0.0000 -201499.2751 21999.8805 85.2606 0.0000 0.0000 -175756.6822 0.0000 -175756.6822 -175756.6822 0.0000 16427.5718 -4874.0934 534946.2959 16427.5718 -4874.0934
ENERGY: 780 342.9806 727.7380 2848.4044 0.0000 -202166.3450 22279.9225 90.2676 0.0000 0.0000 -175877.0320 0.0000 -175877.0320 -175877.0320 0.0000 16560.3523 -4820.6852 534946.2959 16560.3523 -4820.6852
ENERGY: 800 168.0154 666.8854 2830.0011 0.0000 -203027.9419 22636.0147 98.6033 0.0000 0.0000 -176628.4220 0.0000 -176628.4220 -176628.4220 0.0000 16786.1227 -4696.4096 534946.2959 16786.1227 -4696.4096
TCL: Setting parameter constraintScaling to 0.0390625
TCL: Minimizing for 100 steps
ETITLE: TS BOND ANGLE DIHED IMPRP ELECT VDW BOUNDARY MISC KINETIC TOTAL TEMP POTENTIAL TOTAL3 TEMPAVG PRESSURE GPRESSURE VOLUME PRESSAVG GPRESSAVG
ENERGY: 800 168.0154 666.8854 2830.0011 0.0000 -203027.9419 22636.0147 49.3016 0.0000 0.0000 -176677.7237 0.0000 -176677.7237 -176677.7237 0.0000 16829.1773 -27194.9850 534946.2959 16829.1773 -27194.9850
ENERGY: 820 160.8951 654.7538 2829.0459 0.0000 -203174.0097 22668.9634 50.6049 0.0000 0.0000 -176809.7466 0.0000 -176809.7466 -176809.7466 0.0000 16797.8232 -4698.4765 534946.2959 16797.8232 -4698.4765
ENERGY: 840 178.4768 665.1225 2821.5796 0.0000 -203579.5509 22835.6761 53.8704 0.0000 0.0000 -177024.8255 0.0000 -177024.8255 -177024.8255 0.0000 16855.8098 -4686.5966 534946.2959 16855.8098 -4686.5966
ENERGY: 860 166.8367 654.7936 2818.1013 0.0000 -203864.1298 22953.6642 54.9767 0.0000 0.0000 -177215.7572 0.0000 -177215.7572 -177215.7572 0.0000 16923.9835 -4648.4914 534946.2959 16923.9835 -4648.4914
ENERGY: 880 195.3345 668.1505 2826.5778 0.0000 -204126.0688 23070.7249 55.2030 0.0000 0.0000 -177310.0781 0.0000 -177310.0781 -177310.0781 0.0000 17004.3901 -4604.4982 534946.2959 17004.3901 -4604.4982
ENERGY: 900 172.5576 674.1606 2830.5203 0.0000 -204773.8472 23396.6498 58.0853 0.0000 0.0000 -177641.8736 0.0000 -177641.8736 -177641.8736 0.0000 17219.1540 -4463.7596 534946.2959 17219.1540 -4463.7596
TCL: Setting parameter constraintScaling to 0.01953125
TCL: Minimizing for 100 steps
ETITLE: TS BOND ANGLE DIHED IMPRP ELECT VDW BOUNDARY MISC KINETIC TOTAL TEMP POTENTIAL TOTAL3 TEMPAVG PRESSURE GPRESSURE VOLUME PRESSAVG GPRESSAVG
ENERGY: 900 172.5576 674.1606 2830.5203 0.0000 -204773.8472 23396.6498 29.0426 0.0000 0.0000 -177670.9163 0.0000 -177670.9163 -177670.9163 0.0000 17243.3467 -27198.6884 534946.2959 17243.3467 -27198.6884
ENERGY: 920 162.5117 650.1309 2816.1158 0.0000 -204911.3732 23409.6327 29.8638 0.0000 0.0000 -177843.1184 0.0000 -177843.1184 -177843.1184 0.0000 17210.0892 -4490.7888 534946.2959 17210.0892 -4490.7888
ENERGY: 940 168.7905 663.2308 2813.1545 0.0000 -205139.5617 23499.9432 31.2515 0.0000 0.0000 -177963.1912 0.0000 -177963.1912 -177963.1912 0.0000 17220.3191 -4505.8926 534946.2959 17220.3191 -4505.8926
ENERGY: 960 167.9487 657.2851 2813.2315 0.0000 -205304.3006 23569.1010 31.4824 0.0000 0.0000 -178065.2520 0.0000 -178065.2520 -178065.2520 0.0000 17265.7761 -4478.2759 534946.2959 17265.7761 -4478.2759
ENERGY: 980 165.6212 673.1256 2823.9685 0.0000 -205642.2994 23742.5327 31.9548 0.0000 0.0000 -178205.0966 0.0000 -178205.0966 -178205.0966 0.0000 17389.6755 -4401.8327 534946.2959 17389.6755 -4401.8327
ENERGY: 1000 165.6199 654.7357 2811.0702 0.0000 -205743.9903 23761.0102 32.7098 0.0000 0.0000 -178318.8447 0.0000 -178318.8447 -178318.8447 0.0000 17385.3107 -4412.2551 534946.2959 17385.3107 -4412.2551
TCL: Setting parameter constraintScaling to 0
TCL: Minimizing for 5000 steps
ETITLE: TS BOND ANGLE DIHED IMPRP ELECT VDW BOUNDARY MISC KINETIC TOTAL TEMP POTENTIAL TOTAL3 TEMPAVG PRESSURE GPRESSURE VOLUME PRESSAVG GPRESSAVG
ENERGY: 1000 165.6199 654.7357 2811.0702 0.0000 -205743.9903 23761.0102 0.0000 0.0000 0.0000 -178351.5544 0.0000 -178351.5544 -178351.5544 0.0000 17411.2665 -27260.1554 534946.2959 17411.2665 -27260.1554
ENERGY: 2000 167.6331 663.3890 2800.6941 0.0000 -215122.4343 27893.1359 0.0000 0.0000 0.0000 -183597.5823 0.0000 -183597.5823 -183597.5823 0.0000 19593.4684 -3269.5192 534946.2959 19593.4684 -3269.5192
ENERGY: 3000 166.6685 664.9544 2798.4247 0.0000 -217611.3335 28898.2442 0.0000 0.0000 0.0000 -185083.0417 0.0000 -185083.0417 -185083.0417 0.0000 20125.7349 -2696.7872 534946.2959 20125.7349 -2696.7872
ENERGY: 4000 275.9968 693.9467 2791.4645 0.0000 -218997.5140 29542.1703 0.0000 0.0000 0.0000 -185693.9358 0.0000 -185693.9358 -185693.9358 0.0000 20448.9875 -2513.4927 534946.2959 20448.9875 -2513.4927
ENERGY: 5000 165.3602 662.3351 2786.1154 0.0000 -219651.3499 29751.1867 0.0000 0.0000 0.0000 -186286.3525 0.0000 -186286.3525 -186286.3525 0.0000 20567.5439 -2464.2147 534946.2959 20567.5439 -2464.2147
ENERGY: 6000 165.5376 664.5079 2782.3867 0.0000 -220006.5883 29861.1962 0.0000 0.0000 0.0000 -186532.9599 0.0000 -186532.9599 -186532.9599 0.0000 20628.9979 -2439.1358 534946.2959 20628.9979 -2439.1358
