Info: SIMULATION PARAMETERS:
Info: TIMESTEP               1
Info: NUMBER OF STEPS        0
Info: STEPS PER CYCLE        10
Info: PERIODIC CELL BASIS 1  72.449 0 0
Info: PERIODIC CELL BASIS 2  0 93.247 0
Info: PERIODIC CELL BASIS 3  0 0 79.185
Info: PERIODIC CELL CENTER   -0.248 -0.156 -0.047
Info: WRAPPING WATERS AROUND PERIODIC BOUNDARIES ON OUTPUT.
Info: WRAPPING ALL CLUSTERS AROUND PERIODIC BOUNDARIES ON OUTPUT.
Info: FIRST LDB TIMESTEP     50
Info: LAST LDB TIMESTEP     -1
Info: HOM BACKGROUND SCALING 1
Info: PME BACKGROUND SCALING 1
Info: MIN ATOMS PER PATCH    40
Info: VELOCITY FILE          ../replicas/rep28/equilibration/eq1.vel
Info: CENTER OF MASS MOVING INITIALLY? NO
Info: DIELECTRIC             1
Info: EXCLUDE                SCALED ONE-FOUR
Info: 1-4 ELECTROSTATICS SCALED BY 0.833333
Info: MODIFIED 1-4 VDW PARAMETERS WILL BE USED
Info: DCD FILENAME           ../replicas/rep28/equilibration/eq2.dcd
Info: DCD FREQUENCY          5000
Info: DCD FIRST STEP         5000
Info: DCD FILE WILL CONTAIN UNIT CELL DATA
Info: XST FILENAME           ../replicas/rep28/equilibration/eq2.xst
Info: XST FREQUENCY          5000
Info: NO VELOCITY DCD OUTPUT
Info: NO FORCE DCD OUTPUT
Info: OUTPUT FILENAME        ../replicas/rep28/equilibration/eq2
Info: RESTART FILENAME       ../replicas/rep28/equilibration/eq2.restart
Info: RESTART FREQUENCY      5000
Info: BINARY RESTART FILES WILL BE USED
Info: SWITCHING ACTIVE
Info: SWITCHING ON           10
Info: SWITCHING OFF          12
Info: PAIRLIST DISTANCE      13.5
Info: PAIRLIST SHRINK RATE   0.01
Info: PAIRLIST GROW RATE     0.01
Info: PAIRLIST TRIGGER       0.3
Info: PAIRLISTS PER CYCLE    2
Info: PAIRLISTS ENABLED
Info: MARGIN                 0.48
Info: HYDROGEN GROUP CUTOFF  2.5
Info: PATCH DIMENSION        16.48
Info: ENERGY OUTPUT STEPS    500
Info: CROSSTERM ENERGY INCLUDED IN DIHEDRAL
Info: TIMING OUTPUT STEPS    5000
Info: PRESSURE OUTPUT STEPS  500
Info: HARMONIC CONSTRAINTS ACTIVE
Info: HARMONIC CONS EXP      2
Info: HARMONIC CONS SCALING  10
Info: LANGEVIN DYNAMICS ACTIVE
Info: LANGEVIN TEMPERATURE   300
Info: LANGEVIN USING BBK INTEGRATOR
Info: LANGEVIN DAMPING COEFFICIENT IS 5 INVERSE PS
Info: LANGEVIN DYNAMICS NOT APPLIED TO HYDROGENS
Info: BERENDSEN PRESSURE COUPLING ACTIVE
Info:     TARGET PRESSURE IS 1 BAR
Info:     COMPRESSIBILITY ESTIMATE IS 4.57e-05 BAR^(-1)
Info:     RELAXATION TIME IS 100 FS
Info:     APPLIED EVERY 2 STEPS
Info:     PRESSURE CONTROL IS GROUP-BASED
Info:       CELL FLUCTUATION IS ISOTROPIC
Info: PARTICLE MESH EWALD (PME) ACTIVE
Info: PME TOLERANCE               1e-06
Info: PME EWALD COEFFICIENT       0.257952
Info: PME INTERPOLATION ORDER     4
Info: PME GRID DIMENSIONS         80 96 80
Info: PME MAXIMUM GRID SPACING    1
Info: FULL ELECTROSTATIC EVALUATION FREQUENCY      2
Info: USING VERLET I (r-RESPA) MTS SCHEME.
Info: C1 SPLITTING OF LONG RANGE ELECTROSTATICS
Info: PLACING ATOMS IN PATCHES BY HYDROGEN GROUPS
Info: RIGID BONDS TO HYDROGEN : WATER
Info:         ERROR TOLERANCE : 1e-05
Info:          MAX ITERATIONS : 100
Info: RIGID WATER USING SETTLE ALGORITHM
Info: RANDOM NUMBER SEED     1503707073
Info: USE HYDROGEN BONDS?    NO
Info: Using AMBER format force field!
Info: AMBER PARM FILE        ../build/complex.top
Info: COORDINATE PDB         ../replicas/rep28/equilibration/eq1.coor
Info: Exclusions in PARM file will be ignored!
Info: SCNB (VDW SCALING)     2
Info: USING ARITHMETIC MEAN TO COMBINE L-J SIGMA PARAMETERS
Info: SUMMARY OF PARAMETERS:
Info: 71 BONDS
Info: 145 ANGLES
Info: 76 DIHEDRAL
Info: 0 IMPROPER
Info: 0 CROSSTERM
Info: 0 VDW
Info: 190 VDW_PAIRS
Info: 0 NBTHOLE_PAIRS
Info: STRUCTURE SUMMARY:
Info: 49394 ATOMS
Info: 49448 BONDS
Info: 8698 ANGLES
Info: 18780 DIHEDRALS
Info: 0 IMPROPERS
Info: 0 CROSSTERMS
Info: 0 EXCLUSIONS
Info: 2336 CONSTRAINTS
Info: 44667 RIGID BONDS
Info: 103515 DEGREES OF FREEDOM
Info: 17225 HYDROGEN GROUPS
Info: 4 ATOMS IN LARGEST HYDROGEN GROUP
Info: 17225 MIGRATION GROUPS
Info: 4 ATOMS IN LARGEST MIGRATION GROUP
Info: TOTAL MASS = 301478 amu
Info: TOTAL CHARGE = 1.00115e-05 e
Info: MASS DENSITY = 0.935846 g/cm^3
Info: ATOM DENSITY = 0.0923345 atoms/A^3
Info: ADDED 70656 IMPLICIT EXCLUSIONS
Info: NONBONDED TABLE R-SQUARED SPACING: 0.0625
Info: NONBONDED TABLE SIZE: 769 POINTS
Info: REMOVING COM VELOCITY -0.0236488 -0.0109522 0.010538
TCL: Running for 5000 steps
ETITLE: TS BOND ANGLE DIHED IMPRP ELECT VDW BOUNDARY MISC KINETIC TOTAL TEMP POTENTIAL TOTAL3 TEMPAVG PRESSURE GPRESSURE VOLUME PRESSAVG GPRESSAVG
ENERGY: 0 385.3763 1196.0380 2901.6588 0.0000 -212528.2791 29449.1018 0.0000 0.0000 9959.1824 -168636.9217 96.8302 -178596.1042 -168627.3251 96.8302 -2408.2674 -2511.2836 534946.2959 -2408.2674 -2511.2836
ENERGY: 1000 1214.4059 1914.7039 3109.9253 0.0000 -192955.4958 26126.4832 752.1796 0.0000 24250.4831 -135587.3147 235.7803 -159837.7979 -135545.5622 218.8628 -97.7444 -39.5765 522280.1108 -6.1095 -6.2562
ENERGY: 2000 1380.8492 2156.8795 3161.8472 0.0000 -184147.9136 23222.9433 773.7398 0.0000 27876.0401 -125575.6145 271.0305 -153451.6546 -125530.8401 264.1115 -45.5788 -36.4738 516160.5691 -30.4820 -30.5168
ENERGY: 3000 1518.4286 2196.6553 3138.5826 0.0000 -178971.5200 21569.4458 789.0839 0.0000 29453.1690 -120306.1549 286.3645 -149759.3239 -120260.1645 285.5086 -68.0001 12.9887 510314.1100 -22.0751 -21.7995
ENERGY: 4000 1554.9013 2241.5796 3155.5379 0.0000 -177112.0127 20914.4827 823.5619 0.0000 30321.2606 -118100.6887 294.8047 -148421.9493 -118060.9935 293.3332 -96.3108 2.5793 506208.4467 -26.0860 -26.0163
ENERGY: 5000 1580.2612 2230.9837 3153.3719 0.0000 -175608.2332 20257.7736 801.0915 0.0000 30708.7879 -116875.9635 298.5725 -147584.7513 -116826.4263 297.5678 -43.4826 20.6731 505341.0561 -7.2893 -7.3441
TCL: Setting parameter constraintScaling to 5.0
TCL: Running for 5000 steps
ETITLE: TS BOND ANGLE DIHED IMPRP ELECT VDW BOUNDARY MISC KINETIC TOTAL TEMP POTENTIAL TOTAL3 TEMPAVG PRESSURE GPRESSURE VOLUME PRESSAVG GPRESSAVG
ENERGY: 5000 1580.2612 2230.9837 3153.3719 0.0000 -175608.2332 20257.7736 400.5457 0.0000 30706.7653 -117278.5318 298.5528 -147985.2971 -117235.1086 298.5528 -130.0116 -68.6686 505341.0561 -130.0116 -68.6686
ENERGY: 6000 1610.6557 2314.3383 3137.3105 0.0000 -175655.3125 20382.1025 653.6469 0.0000 30949.2167 -116608.0419 300.9101 -147557.2586 -116559.5399 299.6199 -5.6336 -16.6323 504321.1867 8.1244 7.4291
ENERGY: 7000 1573.4834 2315.8706 3156.4520 0.0000 -175555.4259 20086.7459 642.0105 0.0000 30773.2552 -117007.6083 299.1993 -147780.8635 -116958.7263 299.7050 21.0605 30.3174 502693.7643 -6.3008 -6.7995
ENERGY: 8000 1582.8494 2266.6627 3178.1168 0.0000 -175553.0849 20130.9984 640.5336 0.0000 30779.8162 -116974.1077 299.2631 -147753.9239 -116925.2340 299.1008 36.9752 2.1782 501548.2699 -0.5834 -0.7828
ENERGY: 9000 1608.0540 2339.1638 3169.8600 0.0000 -175301.7254 20192.0054 624.5238 0.0000 30925.4133 -116442.7053 300.6787 -147368.1186 -116407.1596 299.7477 -65.8261 15.2089 502605.2624 2.8734 2.9949
ENERGY: 10000 1620.2136 2305.7412 3166.2894 0.0000 -174862.1491 19864.9772 630.2961 0.0000 30869.8336 -116404.7980 300.1383 -147274.6316 -116347.3784 300.8767 -84.6187 -12.3901 503474.8089 13.9492 14.2307
TCL: Setting parameter constraintScaling to 2.5
TCL: Running for 5000 steps
ETITLE: TS BOND ANGLE DIHED IMPRP ELECT VDW BOUNDARY MISC KINETIC TOTAL TEMP POTENTIAL TOTAL3 TEMPAVG PRESSURE GPRESSURE VOLUME PRESSAVG GPRESSAVG
ENERGY: 10000 1620.2136 2305.7412 3166.2894 0.0000 -174862.1491 19864.9772 315.1480 0.0000 30867.7638 -116722.0159 300.1182 -147589.7797 -116676.4080 300.1182 -147.5089 -81.8600 503474.8089 -147.5089 -81.8600
ENERGY: 11000 1624.3705 2358.5470 3188.7052 0.0000 -175549.1740 20185.7464 531.7824 0.0000 30745.0824 -116914.9402 298.9254 -147660.0226 -116860.8915 299.7973 -38.9636 -33.3846 501065.8078 3.3168 3.2651
ENERGY: 12000 1669.4220 2361.3119 3162.1093 0.0000 -175613.4027 20158.6077 500.7175 0.0000 30676.5205 -117084.7138 298.2588 -147761.2343 -117033.2769 300.2880 -83.2408 -77.0946 500731.0280 1.4604 1.4616
ENERGY: 13000 1627.1941 2421.5072 3173.0730 0.0000 -175878.6750 20235.8438 506.4739 0.0000 30748.3567 -117166.2263 298.9572 -147914.5829 -117117.9523 300.6644 16.1449 53.1626 499619.6828 -10.4225 -9.6589
ENERGY: 14000 1687.2010 2356.6765 3173.5054 0.0000 -175810.9773 20320.0233 507.2922 0.0000 30915.6679 -116850.6110 300.5839 -147766.2789 -116806.8795 300.9634 -148.8926 -20.8511 500795.6257 7.1492 7.5039
ENERGY: 15000 1609.2468 2405.4964 3143.7486 0.0000 -175247.2570 19768.7253 527.0399 0.0000 30727.1503 -117065.8497 298.7510 -147793.0001 -117022.0325 299.3050 41.3190 5.5177 499434.1873 -9.1890 -8.9567
TCL: Setting parameter constraintScaling to 1.25
TCL: Running for 5000 steps
ETITLE: TS BOND ANGLE DIHED IMPRP ELECT VDW BOUNDARY MISC KINETIC TOTAL TEMP POTENTIAL TOTAL3 TEMPAVG PRESSURE GPRESSURE VOLUME PRESSAVG GPRESSAVG
ENERGY: 15000 1609.2468 2405.4964 3143.7486 0.0000 -175247.2570 19768.7253 263.5199 0.0000 30725.0993 -117331.4206 298.7311 -148056.5200 -117288.6837 298.7311 -87.6448 -123.6504 499434.1873 -87.6448 -123.6504
ENERGY: 16000 1612.7135 2432.5216 3177.4471 0.0000 -175563.7613 19995.6632 402.5832 0.0000 31074.8497 -116867.9830 302.1316 -147942.8327 -116827.9372 300.6524 -6.2089 10.3012 499452.2972 2.7523 2.6465
ENERGY: 17000 1710.0866 2360.5457 3182.3578 0.0000 -174905.8142 19636.1854 411.1463 0.0000 30763.4375 -116842.0549 299.1038 -147605.4924 -116796.0789 300.7706 -124.5400 -44.2529 500604.7505 12.0620 12.6880
ENERGY: 18000 1598.8281 2383.5547 3207.2623 0.0000 -175157.9875 19890.3594 412.5203 0.0000 30946.6885 -116718.7742 300.8855 -147665.4627 -116671.7655 300.6149 195.3713 92.2733 499693.8967 1.4320 1.4435
ENERGY: 19000 1670.9008 2344.3630 3182.8202 0.0000 -175497.4673 20128.4145 393.7727 0.0000 30958.1852 -116819.0109 300.9973 -147777.1961 -116767.8182 300.3376 -91.7522 -29.6842 499568.4952 8.3193 9.0041
ENERGY: 20000 1623.5747 2343.9755 3172.4886 0.0000 -175660.2431 20145.7008 417.3963 0.0000 30795.9900 -117161.1173 299.4203 -147957.1073 -117114.8792 300.1802 -38.6261 19.8624 499559.7681 0.0225 0.0715
TCL: Setting parameter constraintScaling to 0.625
TCL: Running for 5000 steps
ETITLE: TS BOND ANGLE DIHED IMPRP ELECT VDW BOUNDARY MISC KINETIC TOTAL TEMP POTENTIAL TOTAL3 TEMPAVG PRESSURE GPRESSURE VOLUME PRESSAVG GPRESSAVG
ENERGY: 20000 1623.5747 2343.9755 3172.4886 0.0000 -175660.2431 20145.7008 208.6981 0.0000 30793.9288 -117371.8766 299.4003 -148165.8054 -117329.1617 299.4003 -29.2736 27.6522 499559.7681 -29.2736 27.6522
ENERGY: 21000 1674.1983 2377.0056 3224.4770 0.0000 -175847.7044 20117.3041 328.3950 0.0000 30656.5266 -117469.7978 298.0644 -148126.3244 -117415.5658 299.6544 -20.6498 15.3813 499963.6406 8.3468 8.0608
ENERGY: 22000 1688.0905 2404.4980 3200.3391 0.0000 -175837.4729 19956.0732 338.6530 0.0000 30680.2584 -117569.5607 298.2951 -148249.8191 -117525.7166 298.8928 -112.8465 -93.2372 498655.7466 -2.0366 -1.7270
ENERGY: 23000 1622.1883 2398.0835 3174.9211 0.0000 -175662.4081 20085.1788 317.7232 0.0000 30840.5800 -117223.7333 299.8539 -148064.3133 -117183.8028 299.4792 28.5340 46.3059 497729.7412 1.2679 1.0255
ENERGY: 24000 1619.2534 2465.6867 3201.4898 0.0000 -175399.6146 20056.2479 334.2509 0.0000 30762.2369 -116960.4489 299.0921 -147722.6858 -116915.3693 300.2166 -115.9423 -58.5166 499732.1391 10.5349 10.6971
ENERGY: 25000 1662.9283 2339.1347 3172.6566 0.0000 -175938.2182 20254.4196 322.4190 0.0000 30879.3169 -117307.3431 300.2305 -148186.6599 -117249.0252 300.2416 28.4176 -11.1554 498890.8010 -0.6968 -0.5190
TCL: Setting parameter constraintScaling to 0.3125
TCL: Running for 5000 steps
ETITLE: TS BOND ANGLE DIHED IMPRP ELECT VDW BOUNDARY MISC KINETIC TOTAL TEMP POTENTIAL TOTAL3 TEMPAVG PRESSURE GPRESSURE VOLUME PRESSAVG GPRESSAVG
ENERGY: 25000 1662.9283 2339.1347 3172.6566 0.0000 -175938.2182 20254.4196 161.2095 0.0000 30877.2856 -117470.5838 300.2107 -148347.8694 -117428.5158 300.2107 26.8856 -13.0335 498890.8010 26.8856 -13.0335
ENERGY: 26000 1673.8739 2447.4319 3213.6975 0.0000 -175692.0454 19953.4177 254.8250 0.0000 30908.1006 -117240.6988 300.5103 -148148.7994 -117191.4584 299.8407 -120.6636 -111.4454 497975.2345 -11.8760 -11.9011
ENERGY: 27000 1685.9056 2412.7228 3215.0996 0.0000 -175351.0402 19855.0013 262.1285 0.0000 30903.5974 -117016.5850 300.4666 -147920.1825 -116969.9196 300.8590 63.9201 41.9431 497194.0691 -0.5837 -0.7847
ENERGY: 28000 1649.7296 2387.3417 3215.8014 0.0000 -175471.6619 20056.7274 234.9393 0.0000 30890.6691 -117036.4535 300.3409 -147927.1225 -116997.1375 300.2828 -14.7400 -46.9084 498668.9627 1.4799 1.2397
ENERGY: 29000 1611.3103 2404.2039 3238.2801 0.0000 -175921.1225 20090.7069 248.1922 0.0000 30917.5132 -117410.9159 300.6019 -148328.4291 -117359.3143 299.7727 -54.1008 -59.4488 498266.1482 -5.1998 -5.2342
ENERGY: 30000 1669.1331 2371.1203 3220.3867 0.0000 -175945.3418 20241.1893 265.0408 0.0000 30810.9867 -117367.4849 299.5661 -148178.4716 -117309.9346 299.6436 -6.9536 90.7249 498433.5279 7.9381 7.8613
TCL: Setting parameter constraintScaling to 0.15625
TCL: Running for 5000 steps
ETITLE: TS BOND ANGLE DIHED IMPRP ELECT VDW BOUNDARY MISC KINETIC TOTAL TEMP POTENTIAL TOTAL3 TEMPAVG PRESSURE GPRESSURE VOLUME PRESSAVG GPRESSAVG
ENERGY: 30000 1669.1331 2371.1203 3220.3867 0.0000 -175945.3418 20241.1893 132.5204 0.0000 30808.9405 -117502.0515 299.5462 -148310.9920 -117459.6336 299.5462 -38.6001 56.1925 498433.5279 -38.6001 56.1925
ENERGY: 31000 1585.4114 2388.8288 3174.1651 0.0000 -175427.6587 19987.7320 189.6542 0.0000 30874.1026 -117227.7647 300.1798 -148101.8672 -117179.9793 299.6390 -75.7100 -28.2280 498167.1381 2.1579 1.9736
ENERGY: 32000 1569.1007 2441.4811 3165.5281 0.0000 -175677.0429 19969.8031 193.1689 0.0000 30760.2869 -117577.6741 299.0732 -148337.9610 -117543.6688 299.9084 -92.0380 -61.1680 497463.0693 -14.3222 -14.4296
ENERGY: 33000 1627.4910 2415.8555 3199.6608 0.0000 -175809.2698 20003.7625 206.8306 0.0000 30850.3836 -117505.2857 299.9492 -148355.6694 -117460.9783 298.6538 -73.0151 -16.6226 498522.7987 9.1845 9.6706
ENERGY: 34000 1626.6555 2426.5813 3218.3688 0.0000 -176116.6899 20081.5554 208.5808 0.0000 30988.2382 -117566.7098 301.2895 -148554.9481 -117511.7331 299.8653 14.8838 -65.5360 497888.3553 -9.5255 -9.3406
ENERGY: 35000 1642.4248 2338.3917 3247.7739 0.0000 -176283.5878 20207.6160 223.6137 0.0000 30930.9736 -117692.7941 300.7327 -148623.7677 -117650.0397 299.7091 -114.7621 -25.0195 498550.7396 9.9340 10.3100
TCL: Setting parameter constraintScaling to 0.078125
TCL: Running for 5000 steps
ETITLE: TS BOND ANGLE DIHED IMPRP ELECT VDW BOUNDARY MISC KINETIC TOTAL TEMP POTENTIAL TOTAL3 TEMPAVG PRESSURE GPRESSURE VOLUME PRESSAVG GPRESSAVG
ENERGY: 35000 1642.4248 2338.3917 3247.7739 0.0000 -176283.5878 20207.6160 111.8068 0.0000 30928.9355 -117806.6391 300.7129 -148735.5745 -117760.9433 300.7129 -119.3688 -29.5472 498550.7396 -119.3688 -29.5472
ENERGY: 36000 1626.1664 2412.9166 3222.4037 0.0000 -176122.2102 20406.8781 145.9985 0.0000 30363.7362 -117944.1108 295.2176 -148307.8469 -117901.1278 297.9543 96.9762 46.3923 497605.2072 0.0287 -0.2905
ENERGY: 37000 1647.9555 2409.8610 3190.4813 0.0000 -176118.8921 20148.1753 150.5211 0.0000 30897.0114 -117674.8865 300.4025 -148571.8979 -117628.8327 299.0530 -76.7960 -6.7369 497866.4811 5.8268 5.6614
ENERGY: 38000 1621.7687 2390.4537 3239.0708 0.0000 -175700.5761 20029.5724 167.7466 0.0000 31000.4626 -117251.5011 301.4083 -148251.9637 -117198.3270 300.0598 -36.1465 26.3822 496762.2991 0.9930 0.7232
ENERGY: 39000 1627.5068 2417.5852 3196.5642 0.0000 -175845.3463 20089.0914 173.3576 0.0000 30706.9064 -117634.3347 298.5542 -148341.2412 -117584.7380 298.7542 -116.1446 -62.2225 497230.1584 -5.1727 -5.5982
ENERGY: 40000 1642.5813 2402.3728 3256.1148 0.0000 -176237.3048 20039.7491 175.1809 0.0000 30749.2747 -117972.0313 298.9661 -148721.3060 -117928.0271 298.1652 -49.6735 49.2094 496121.2854 1.3742 1.3548
TCL: Setting parameter constraintScaling to 0.0390625
TCL: Running for 5000 steps
ETITLE: TS BOND ANGLE DIHED IMPRP ELECT VDW BOUNDARY MISC KINETIC TOTAL TEMP POTENTIAL TOTAL3 TEMPAVG PRESSURE GPRESSURE VOLUME PRESSAVG GPRESSAVG
ENERGY: 40000 1642.5813 2402.3728 3256.1148 0.0000 -176237.3048 20039.7491 87.5904 0.0000 30747.2072 -118061.6892 298.9460 -148808.8965 -118019.6319 298.9460 -81.4726 30.6131 496121.2854 -81.4726 30.6131
ENERGY: 41000 1666.2824 2347.9735 3242.3750 0.0000 -175789.8328 19966.5663 114.8116 0.0000 30821.2411 -117630.5829 299.6658 -148451.8240 -117584.2289 299.0100 -86.0823 -53.5978 497902.2580 19.6746 19.4506
ENERGY: 42000 1577.3908 2399.1576 3198.1414 0.0000 -175916.7441 20024.9056 128.4728 0.0000 30887.9016 -117700.7744 300.3139 -148588.6760 -117647.2071 299.0055 -0.3634 -13.8322 497052.1590 -5.8668 -6.8060
ENERGY: 43000 1629.7178 2443.2779 3179.9300 0.0000 -176023.6189 20145.0088 122.2529 0.0000 30724.0562 -117779.3755 298.7209 -148503.4316 -117734.1792 299.8862 30.2380 30.6108 499375.9104 11.7139 12.0857
ENERGY: 44000 1663.2950 2438.1877 3160.4036 0.0000 -176034.7867 20131.5093 120.1062 0.0000 30772.0928 -117749.1920 299.1880 -148521.2848 -117706.5532 299.7868 -48.5772 4.3556 498378.2643 0.6554 1.0762
ENERGY: 45000 1638.0205 2399.3077 3203.5052 0.0000 -175593.1867 20008.7292 137.3128 0.0000 30817.9579 -117388.3534 299.6339 -148206.3113 -117343.8352 299.7347 -35.4710 -49.4686 497464.4544 -1.8210 -1.4039
TCL: Setting parameter constraintScaling to 0.01953125
TCL: Running for 5000 steps
ETITLE: TS BOND ANGLE DIHED IMPRP ELECT VDW BOUNDARY MISC KINETIC TOTAL TEMP POTENTIAL TOTAL3 TEMPAVG PRESSURE GPRESSURE VOLUME PRESSAVG GPRESSAVG
ENERGY: 45000 1638.0205 2399.3077 3203.5052 0.0000 -175593.1867 20008.7292 68.6564 0.0000 30815.8996 -117459.0681 299.6139 -148274.9677 -117416.0803 299.6139 -39.4150 -65.1116 497464.4544 -39.4150 -65.1116
ENERGY: 46000 1628.9077 2434.5017 3176.8517 0.0000 -175545.8246 20045.8098 78.1516 0.0000 30920.2190 -117261.3831 300.6282 -148181.6022 -117229.4687 301.1590 -50.2478 -31.5931 497464.5516 5.4244 4.7779
ENERGY: 47000 1585.3057 2380.1045 3223.1352 0.0000 -175489.9145 19933.5373 84.7151 0.0000 30737.1665 -117545.9503 298.8484 -148283.1168 -117496.2269 300.5898 -8.0513 72.7442 497244.4133 5.7177 5.7801
ENERGY: 48000 1632.5923 2396.3065 3189.5736 0.0000 -176081.4556 20255.1832 89.0148 0.0000 30869.3155 -117649.4698 300.1332 -148518.7853 -117604.6668 299.6185 -32.3298 -21.2567 498695.3116 12.2207 12.1740
ENERGY: 49000 1661.8569 2412.4948 3199.9610 0.0000 -175716.2907 20016.9476 96.3750 0.0000 30822.6411 -117506.0142 299.6794 -148328.6553 -117469.3193 299.6824 56.6766 54.0459 497440.6566 5.4496 6.0008
ENERGY: 50000 1611.9216 2421.6819 3235.8216 0.0000 -175714.4996 20007.1850 91.9880 0.0000 30595.8509 -117750.0507 297.4744 -148345.9016 -117712.3484 299.2423 -61.3758 -52.2393 496974.8297 2.6859 2.5450
TCL: Setting parameter constraintScaling to 0
TCL: Running for 5000 steps
ETITLE: TS BOND ANGLE DIHED IMPRP ELECT VDW BOUNDARY MISC KINETIC TOTAL TEMP POTENTIAL TOTAL3 TEMPAVG PRESSURE GPRESSURE VOLUME PRESSAVG GPRESSAVG
ENERGY: 50000 1611.9216 2421.6819 3235.8216 0.0000 -175714.4996 20007.1850 0.0000 0.0000 30593.8014 -117844.0882 297.4545 -148437.8896 -117802.2375 297.4545 -87.1485 -86.2110 496974.8297 -87.1485 -86.2110
ENERGY: 51000 1637.0163 2352.3509 3207.5703 0.0000 -175851.3299 19850.2839 0.0000 0.0000 30790.8145 -118013.2939 299.3700 -148804.1084 -117969.5130 298.7028 -157.8608 -99.9403 497188.1652 3.0042 3.1858
ENERGY: 52000 1674.1884 2357.7903 3216.7350 0.0000 -175905.6695 20162.2838 0.0000 0.0000 30837.6555 -117657.0164 299.8254 -148494.6719 -117607.3413 299.4315 -88.4474 15.3929 497451.4155 2.2483 2.0250
ENERGY: 53000 1608.7013 2394.0017 3226.9066 0.0000 -176178.4813 20216.1525 0.0000 0.0000 30799.1818 -117933.5374 299.4514 -148732.7191 -117884.2554 299.3731 47.0615 34.7574 496763.4396 3.0846 3.0356
ENERGY: 54000 1639.6968 2365.7480 3248.1904 0.0000 -176188.8823 20122.2183 0.0000 0.0000 30950.0753 -117862.9537 300.9184 -148813.0289 -117822.6933 299.4640 -55.1515 40.6388 497218.5372 -0.3718 -0.4629
ENERGY: 55000 1562.6310 2395.8388 3237.4111 0.0000 -176046.2439 19893.0249 0.0000 0.0000 30536.4266 -118420.9115 296.8967 -148957.3381 -118370.8394 297.5173 -146.3523 -76.1621 495370.3284 -10.2046 -10.4484
