Info: SIMULATION PARAMETERS:
Info: TIMESTEP               2
Info: NUMBER OF STEPS        0
Info: STEPS PER CYCLE        10
Info: PERIODIC CELL BASIS 1  72.449 0 0
Info: PERIODIC CELL BASIS 2  0 93.247 0
Info: PERIODIC CELL BASIS 3  0 0 79.185
Info: PERIODIC CELL CENTER   -0.248 -0.156 -0.047
Info: WRAPPING WATERS AROUND PERIODIC BOUNDARIES ON OUTPUT.
Info: WRAPPING ALL CLUSTERS AROUND PERIODIC BOUNDARIES ON OUTPUT.
Info: FIRST LDB TIMESTEP     50
Info: LAST LDB TIMESTEP     -1
Info: HOM BACKGROUND SCALING 1
Info: PME BACKGROUND SCALING 1
Info: MIN ATOMS PER PATCH    40
Info: INITIAL TEMPERATURE    0
Info: CENTER OF MASS MOVING INITIALLY? NO
Info: DIELECTRIC             1
Info: EXCLUDE                SCALED ONE-FOUR
Info: 1-4 ELECTROSTATICS SCALED BY 0.833333
Info: MODIFIED 1-4 VDW PARAMETERS WILL BE USED
Info: NO DCD TRAJECTORY OUTPUT
Info: NO EXTENDED SYSTEM TRAJECTORY OUTPUT
Info: NO VELOCITY DCD OUTPUT
Info: NO FORCE DCD OUTPUT
Info: OUTPUT FILENAME        ../replicas/rep106/equilibration/eq0
Info: NO RESTART FILE
Info: SWITCHING ACTIVE
Info: SWITCHING ON           10
Info: SWITCHING OFF          12
Info: PAIRLIST DISTANCE      13.5
Info: PAIRLIST SHRINK RATE   0.01
Info: PAIRLIST GROW RATE     0.01
Info: PAIRLIST TRIGGER       0.3
Info: PAIRLISTS PER CYCLE    2
Info: PAIRLISTS ENABLED
Info: MARGIN                 0
Info: HYDROGEN GROUP CUTOFF  2.5
Info: PATCH DIMENSION        16
Info: ENERGY OUTPUT STEPS    500
Info: CROSSTERM ENERGY INCLUDED IN DIHEDRAL
Info: TIMING OUTPUT STEPS    5000
Info: PRESSURE OUTPUT STEPS  500
Info: HARMONIC CONSTRAINTS ACTIVE
Info: HARMONIC CONS EXP      2
Info: HARMONIC CONS SCALING  10
Info: CONJUGATE GRADIENT MINIMIZATION ACTIVE
Info: LINE MINIMIZATION GOAL = 0.001
Info: BABY STEP SIZE = 0.01
Info: TINY STEP SIZE = 1e-06
Info: PARTICLE MESH EWALD (PME) ACTIVE
Info: PME TOLERANCE               1e-06
Info: PME EWALD COEFFICIENT       0.257952
Info: PME INTERPOLATION ORDER     4
Info: PME GRID DIMENSIONS         80 96 80
Info: PME MAXIMUM GRID SPACING    1
Info: FULL ELECTROSTATIC EVALUATION FREQUENCY      2
Info: USING VERLET I (r-RESPA) MTS SCHEME.
Info: C1 SPLITTING OF LONG RANGE ELECTROSTATICS
Info: PLACING ATOMS IN PATCHES BY HYDROGEN GROUPS
Info: RIGID BONDS TO HYDROGEN : ALL
Info:         ERROR TOLERANCE : 1e-05
Info:          MAX ITERATIONS : 100
Info: RIGID WATER USING SETTLE ALGORITHM
Info: RANDOM NUMBER SEED     1503694907
Info: USE HYDROGEN BONDS?    NO
Info: Using AMBER format force field!
Info: AMBER PARM FILE        ../build/complex.top
Info: COORDINATE PDB         ../build/complex.pdb
Info: Exclusions in PARM file will be ignored!
Info: SCNB (VDW SCALING)     2
Info: USING ARITHMETIC MEAN TO COMBINE L-J SIGMA PARAMETERS
Info: SUMMARY OF PARAMETERS:
Info: 71 BONDS
Info: 145 ANGLES
Info: 76 DIHEDRAL
Info: 0 IMPROPER
Info: 0 CROSSTERM
Info: 0 VDW
Info: 190 VDW_PAIRS
Info: 0 NBTHOLE_PAIRS
Info: STRUCTURE SUMMARY:
Info: 49394 ATOMS
Info: 49448 BONDS
Info: 8698 ANGLES
Info: 18780 DIHEDRALS
Info: 0 IMPROPERS
Info: 0 CROSSTERMS
Info: 0 EXCLUSIONS
Info: 2336 CONSTRAINTS
Info: 47058 RIGID BONDS
Info: 101124 DEGREES OF FREEDOM
Info: 17225 HYDROGEN GROUPS
Info: 4 ATOMS IN LARGEST HYDROGEN GROUP
Info: 17225 MIGRATION GROUPS
Info: 4 ATOMS IN LARGEST MIGRATION GROUP
Info: TOTAL MASS = 301478 amu
Info: TOTAL CHARGE = 1.00115e-05 e
Info: MASS DENSITY = 0.935846 g/cm^3
Info: ATOM DENSITY = 0.0923345 atoms/A^3
Info: ADDED 70656 IMPLICIT EXCLUSIONS
Info: NONBONDED TABLE R-SQUARED SPACING: 0.0625
Info: NONBONDED TABLE SIZE: 769 POINTS
Info: REMOVING COM VELOCITY 0 0 0
TCL: Minimizing for 100 steps
ETITLE: TS BOND ANGLE DIHED IMPRP ELECT VDW BOUNDARY MISC KINETIC TOTAL TEMP POTENTIAL TOTAL3 TEMPAVG PRESSURE GPRESSURE VOLUME PRESSAVG GPRESSAVG
ENERGY: 0 155.4176 1012.2698 2855.7272 0.0000 -154496.7911 207729.2052 0.0468 0.0000 0.0000 57255.8755 0.0000 57255.8755 57255.8755 0.0000 116350.2532 86546.1670 534946.2959 116350.2532 86546.1670
ENERGY: 20 304.7555 935.7912 2893.4663 0.0000 -158672.9409 17936.6593 143.9454 0.0000 0.0000 -136458.3232 0.0000 -136458.3232 -136458.3232 0.0000 16523.9386 -239.4560 534946.2959 16523.9386 -239.4560
ENERGY: 40 198.7472 799.5732 2896.9273 0.0000 -162811.4536 16417.9536 221.3031 0.0000 0.0000 -142276.9493 0.0000 -142276.9493 -142276.9493 0.0000 15011.2701 -2135.4700 534946.2959 15011.2701 -2135.4700
ENERGY: 60 130.5279 715.3439 2898.2166 0.0000 -167496.1607 15446.7533 315.2797 0.0000 0.0000 -147990.0393 0.0000 -147990.0393 -147990.0393 0.0000 13793.8828 -3799.3998 534946.2959 13793.8828 -3799.3998
ENERGY: 80 431.2722 765.6304 2904.3789 0.0000 -169937.5450 15121.1506 372.0125 0.0000 0.0000 -150343.1004 0.0000 -150343.1004 -150343.1004 0.0000 13270.3269 -4577.2501 534946.2959 13270.3269 -4577.2501
ENERGY: 100 129.7109 708.0636 2904.2782 0.0000 -171050.0652 15018.6542 384.2002 0.0000 0.0000 -151905.1581 0.0000 -151905.1581 -151905.1581 0.0000 13092.9131 -4843.6301 534946.2959 13092.9131 -4843.6301
TCL: Setting parameter constraintScaling to 5.0
TCL: Minimizing for 100 steps
ETITLE: TS BOND ANGLE DIHED IMPRP ELECT VDW BOUNDARY MISC KINETIC TOTAL TEMP POTENTIAL TOTAL3 TEMPAVG PRESSURE GPRESSURE VOLUME PRESSAVG GPRESSAVG
ENERGY: 100 129.7109 708.0636 2904.2782 0.0000 -171050.0652 15018.6542 192.1001 0.0000 0.0000 -152097.2582 0.0000 -152097.2582 -152097.2582 0.0000 13703.5084 -22944.4539 534946.2959 13703.5084 -22944.4539
ENERGY: 120 118.6812 680.2873 2909.9067 0.0000 -172396.3040 14830.1212 259.9546 0.0000 0.0000 -153597.3530 0.0000 -153597.3530 -153597.3530 0.0000 13320.9492 -4756.3045 534946.2959 13320.9492 -4756.3045
ENERGY: 140 109.1472 671.1472 2912.0863 0.0000 -174830.1952 14716.1444 337.7289 0.0000 0.0000 -156083.9412 0.0000 -156083.9412 -156083.9412 0.0000 12908.9688 -5423.1295 534946.2959 12908.9688 -5423.1295
ENERGY: 160 302.9337 691.3219 2915.1727 0.0000 -176082.7406 14739.2767 369.8463 0.0000 0.0000 -157064.1894 0.0000 -157064.1894 -157064.1894 0.0000 12780.5404 -5682.9519 534946.2959 12780.5404 -5682.9519
ENERGY: 180 182.1084 640.8165 2917.0633 0.0000 -177289.9952 14805.1251 391.9068 0.0000 0.0000 -158352.9750 0.0000 -158352.9750 -158352.9750 0.0000 12715.3869 -5872.1753 534946.2959 12715.3869 -5872.1753
ENERGY: 200 152.9107 659.4097 2924.2776 0.0000 -179513.6683 15069.0535 444.5968 0.0000 0.0000 -160263.4198 0.0000 -160263.4198 -160263.4198 0.0000 12655.5349 -6161.8067 534946.2959 12655.5349 -6161.8067
TCL: Setting parameter constraintScaling to 2.5
TCL: Minimizing for 100 steps
ETITLE: TS BOND ANGLE DIHED IMPRP ELECT VDW BOUNDARY MISC KINETIC TOTAL TEMP POTENTIAL TOTAL3 TEMPAVG PRESSURE GPRESSURE VOLUME PRESSAVG GPRESSAVG
ENERGY: 200 152.9107 659.4097 2924.2776 0.0000 -179513.6683 15069.0535 222.2984 0.0000 0.0000 -160485.7182 0.0000 -160485.7182 -160485.7182 0.0000 13203.3929 -25272.2291 534946.2959 13203.3929 -25272.2291
ENERGY: 220 315.5973 689.2283 2930.8325 0.0000 -180396.3138 15095.0631 299.7591 0.0000 0.0000 -161065.8335 0.0000 -161065.8335 -161065.8335 0.0000 12925.1155 -5975.5615 534946.2959 12925.1155 -5975.5615
ENERGY: 240 187.0663 660.4778 2922.2201 0.0000 -181209.0323 15244.1976 312.1919 0.0000 0.0000 -161882.8786 0.0000 -161882.8786 -161882.8786 0.0000 13019.7771 -5991.8408 534946.2959 13019.7771 -5991.8408
ENERGY: 260 152.4597 627.3399 2923.0899 0.0000 -181894.1212 15356.3928 339.4538 0.0000 0.0000 -162495.3852 0.0000 -162495.3852 -162495.3852 0.0000 12964.0823 -6105.9881 534946.2959 12964.0823 -6105.9881
ENERGY: 280 180.5896 695.0258 2935.0348 0.0000 -183252.4910 15645.1917 406.3028 0.0000 0.0000 -163390.3463 0.0000 -163390.3463 -163390.3463 0.0000 12956.6379 -6266.1805 534946.2959 12956.6379 -6266.1805
ENERGY: 300 138.6592 634.8886 2921.1337 0.0000 -184415.4525 15986.7444 417.3090 0.0000 0.0000 -164316.7175 0.0000 -164316.7175 -164316.7175 0.0000 13095.7911 -6251.2849 534946.2959 13095.7911 -6251.2849
TCL: Setting parameter constraintScaling to 1.25
TCL: Minimizing for 100 steps
ETITLE: TS BOND ANGLE DIHED IMPRP ELECT VDW BOUNDARY MISC KINETIC TOTAL TEMP POTENTIAL TOTAL3 TEMPAVG PRESSURE GPRESSURE VOLUME PRESSAVG GPRESSAVG
ENERGY: 300 138.6592 634.8886 2921.1337 0.0000 -184415.4525 15986.7444 208.6545 0.0000 0.0000 -164525.3720 0.0000 -164525.3720 -164525.3720 0.0000 13506.2475 -26094.1707 534946.2959 13506.2475 -26094.1707
ENERGY: 320 132.4443 676.9330 2928.2594 0.0000 -185124.7990 16121.5048 259.7901 0.0000 0.0000 -165005.8675 0.0000 -165005.8675 -165005.8675 0.0000 13429.2867 -5994.1030 534946.2959 13429.2867 -5994.1030
ENERGY: 340 172.9710 659.1552 2911.5775 0.0000 -185862.2091 16345.5602 270.4775 0.0000 0.0000 -165502.4678 0.0000 -165502.4678 -165502.4678 0.0000 13522.3482 -5982.5922 534946.2959 13522.3482 -5982.5922
ENERGY: 360 145.7581 653.5875 2915.5977 0.0000 -188400.4779 17168.9258 359.0571 0.0000 0.0000 -167157.5517 0.0000 -167157.5517 -167157.5517 0.0000 13749.1548 -6041.7132 534946.2959 13749.1548 -6041.7132
ENERGY: 380 408.6964 711.7000 2893.4927 0.0000 -191290.6162 18435.7035 466.3004 0.0000 0.0000 -168374.7230 0.0000 -168374.7230 -168374.7230 0.0000 14201.0722 -5924.2143 534946.2959 14201.0722 -5924.2143
ENERGY: 400 146.7444 649.7854 2906.1139 0.0000 -191624.8651 18490.9438 457.7001 0.0000 0.0000 -168973.5774 0.0000 -168973.5774 -168973.5774 0.0000 14285.4936 -5882.5420 534946.2959 14285.4936 -5882.5420
TCL: Setting parameter constraintScaling to 0.625
TCL: Minimizing for 100 steps
ETITLE: TS BOND ANGLE DIHED IMPRP ELECT VDW BOUNDARY MISC KINETIC TOTAL TEMP POTENTIAL TOTAL3 TEMPAVG PRESSURE GPRESSURE VOLUME PRESSAVG GPRESSAVG
ENERGY: 400 146.7444 649.7854 2906.1139 0.0000 -191624.8651 18490.9438 228.8501 0.0000 0.0000 -169202.4275 0.0000 -169202.4275 -169202.4275 0.0000 14612.3172 -26694.5274 534946.2959 14612.3172 -26694.5274
ENERGY: 420 170.7718 643.3089 2885.6717 0.0000 -192027.0947 18567.2179 248.7755 0.0000 0.0000 -169511.3488 0.0000 -169511.3488 -169511.3488 0.0000 14603.3865 -5614.5533 534946.2959 14603.3865 -5614.5533
ENERGY: 440 154.0594 651.9986 2882.8321 0.0000 -193323.5001 18934.6897 290.0878 0.0000 0.0000 -170409.8324 0.0000 -170409.8324 -170409.8324 0.0000 14734.2174 -5638.1291 534946.2959 14734.2174 -5638.1291
ENERGY: 460 227.2174 724.6293 2889.6908 0.0000 -194503.2125 19365.4560 325.9887 0.0000 0.0000 -170970.2303 0.0000 -170970.2303 -170970.2303 0.0000 14910.7252 -5608.0879 534946.2959 14910.7252 -5608.0879
ENERGY: 480 189.9524 658.3138 2875.0711 0.0000 -195040.9820 19601.3420 323.1780 0.0000 0.0000 -171393.1246 0.0000 -171393.1246 -171393.1246 0.0000 15019.5959 -5520.8888 534946.2959 15019.5959 -5520.8888
ENERGY: 500 144.5173 645.6132 2869.0627 0.0000 -196170.5207 20119.5429 330.1841 0.0000 0.0000 -172061.6006 0.0000 -172061.6006 -172061.6006 0.0000 15313.8325 -5360.8005 534946.2959 15313.8325 -5360.8005
TCL: Setting parameter constraintScaling to 0.3125
TCL: Minimizing for 100 steps
ETITLE: TS BOND ANGLE DIHED IMPRP ELECT VDW BOUNDARY MISC KINETIC TOTAL TEMP POTENTIAL TOTAL3 TEMPAVG PRESSURE GPRESSURE VOLUME PRESSAVG GPRESSAVG
ENERGY: 500 144.5173 645.6132 2869.0627 0.0000 -196170.5207 20119.5429 165.0920 0.0000 0.0000 -172226.6926 0.0000 -172226.6926 -172226.6926 0.0000 15515.8922 -26862.7682 534946.2959 15515.8922 -26862.7682
ENERGY: 520 154.3284 653.5421 2876.0780 0.0000 -196439.1767 20134.2340 180.6697 0.0000 0.0000 -172440.3245 0.0000 -172440.3245 -172440.3245 0.0000 15440.9390 -5267.1786 534946.2959 15440.9390 -5267.1786
ENERGY: 540 314.0278 685.8348 2862.0983 0.0000 -197442.7591 20479.6084 218.7619 0.0000 0.0000 -172882.4279 0.0000 -172882.4279 -172882.4279 0.0000 15526.5310 -5291.0331 534946.2959 15526.5310 -5291.0331
ENERGY: 560 158.0912 659.6562 2869.0617 0.0000 -197931.3105 20641.3364 231.5393 0.0000 0.0000 -173371.6258 0.0000 -173371.6258 -173371.6258 0.0000 15599.2845 -5273.2923 534946.2959 15599.2845 -5273.2923
ENERGY: 580 157.0968 646.2770 2855.9131 0.0000 -198392.3410 20832.1507 237.4341 0.0000 0.0000 -173663.4693 0.0000 -173663.4693 -173663.4693 0.0000 15701.8012 -5217.4751 534946.2959 15701.8012 -5217.4751
ENERGY: 600 182.7037 667.1367 2856.9055 0.0000 -198987.3188 21083.0048 238.9562 0.0000 0.0000 -173958.6120 0.0000 -173958.6120 -173958.6120 0.0000 15853.0787 -5153.8949 534946.2959 15853.0787 -5153.8949
TCL: Setting parameter constraintScaling to 0.15625
TCL: Minimizing for 100 steps
ETITLE: TS BOND ANGLE DIHED IMPRP ELECT VDW BOUNDARY MISC KINETIC TOTAL TEMP POTENTIAL TOTAL3 TEMPAVG PRESSURE GPRESSURE VOLUME PRESSAVG GPRESSAVG
ENERGY: 600 182.7037 667.1367 2856.9055 0.0000 -198987.3188 21083.0048 119.4781 0.0000 0.0000 -174078.0901 0.0000 -174078.0901 -174078.0901 0.0000 15978.3627 -27065.6538 534946.2959 15978.3627 -27065.6538
ENERGY: 620 154.7923 651.5879 2853.1203 0.0000 -199159.9148 21117.5999 123.6356 0.0000 0.0000 -174259.1787 0.0000 -174259.1787 -174259.1787 0.0000 15993.4961 -5029.2064 534946.2959 15993.4961 -5029.2064
ENERGY: 640 336.2466 671.4166 2850.4766 0.0000 -199625.4948 21277.8936 135.1931 0.0000 0.0000 -174354.2682 0.0000 -174354.2682 -174354.2682 0.0000 15989.8604 -5075.3486 534946.2959 15989.8604 -5075.3486
ENERGY: 660 169.8406 653.4078 2847.9173 0.0000 -199785.8919 21329.6264 136.8890 0.0000 0.0000 -174648.2108 0.0000 -174648.2108 -174648.2108 0.0000 16043.9095 -5037.4298 534946.2959 16043.9095 -5037.4298
ENERGY: 680 159.7944 648.4853 2847.7464 0.0000 -200260.8585 21513.0048 143.2431 0.0000 0.0000 -174948.5844 0.0000 -174948.5844 -174948.5844 0.0000 16154.0460 -5006.8702 534946.2959 16154.0460 -5006.8702
ENERGY: 700 163.1481 655.7189 2841.4968 0.0000 -200404.2093 21554.0133 145.8596 0.0000 0.0000 -175043.9725 0.0000 -175043.9725 -175043.9725 0.0000 16172.5794 -5011.9912 534946.2959 16172.5794 -5011.9912
TCL: Setting parameter constraintScaling to 0.078125
TCL: Minimizing for 100 steps
ETITLE: TS BOND ANGLE DIHED IMPRP ELECT VDW BOUNDARY MISC KINETIC TOTAL TEMP POTENTIAL TOTAL3 TEMPAVG PRESSURE GPRESSURE VOLUME PRESSAVG GPRESSAVG
ENERGY: 700 163.1481 655.7189 2841.4968 0.0000 -200404.2093 21554.0133 72.9298 0.0000 0.0000 -175116.9024 0.0000 -175116.9024 -175116.9024 0.0000 16242.6873 -27139.6528 534946.2959 16242.6873 -27139.6528
ENERGY: 720 172.9058 650.5156 2845.7399 0.0000 -200617.3706 21633.4407 75.2977 0.0000 0.0000 -175239.4710 0.0000 -175239.4710 -175239.4710 0.0000 16262.8913 -4933.8389 534946.2959 16262.8913 -4933.8389
ENERGY: 740 165.9969 662.7343 2838.7752 0.0000 -201176.1048 21838.6571 81.5218 0.0000 0.0000 -175588.4195 0.0000 -175588.4195 -175588.4195 0.0000 16397.0941 -4899.8408 534946.2959 16397.0941 -4899.8408
ENERGY: 760 205.1768 659.8056 2837.6959 0.0000 -201544.3327 21981.2780 84.4776 0.0000 0.0000 -175775.8987 0.0000 -175775.8987 -175775.8987 0.0000 16395.7786 -4882.8135 534946.2959 16395.7786 -4882.8135
ENERGY: 780 260.5423 673.3465 2833.8430 0.0000 -202201.4530 22270.2928 90.6618 0.0000 0.0000 -176072.7666 0.0000 -176072.7666 -176072.7666 0.0000 16519.7320 -4846.2422 534946.2959 16519.7320 -4846.2422
ENERGY: 800 171.0685 649.3755 2828.9439 0.0000 -202363.9028 22318.9508 92.2456 0.0000 0.0000 -176303.3186 0.0000 -176303.3186 -176303.3186 0.0000 16585.1746 -4807.2068 534946.2959 16585.1746 -4807.2068
TCL: Setting parameter constraintScaling to 0.0390625
TCL: Minimizing for 100 steps
ETITLE: TS BOND ANGLE DIHED IMPRP ELECT VDW BOUNDARY MISC KINETIC TOTAL TEMP POTENTIAL TOTAL3 TEMPAVG PRESSURE GPRESSURE VOLUME PRESSAVG GPRESSAVG
ENERGY: 800 171.0685 649.3755 2828.9439 0.0000 -202363.9029 22318.9508 46.1228 0.0000 0.0000 -176349.4414 0.0000 -176349.4414 -176349.4414 0.0000 16625.7631 -27229.7745 534946.2959 16625.7631 -27229.7745
ENERGY: 820 299.1370 669.2058 2829.4538 0.0000 -202608.5218 22402.1459 47.4161 0.0000 0.0000 -176361.1633 0.0000 -176361.1633 -176361.1633 0.0000 16691.2892 -4730.3937 534946.2959 16691.2892 -4730.3937
ENERGY: 840 177.0275 646.4677 2825.5961 0.0000 -202903.9167 22524.9438 49.0617 0.0000 0.0000 -176680.8199 0.0000 -176680.8199 -176680.8199 0.0000 16714.0925 -4740.6560 534946.2959 16714.0925 -4740.6560
ENERGY: 860 169.0031 647.0172 2824.1178 0.0000 -203300.2908 22686.9303 51.1959 0.0000 0.0000 -176922.0265 0.0000 -176922.0265 -176922.0265 0.0000 16794.3349 -4702.5527 534946.2959 16794.3349 -4702.5527
ENERGY: 880 177.0457 654.6920 2824.1826 0.0000 -203630.7862 22825.4293 52.7744 0.0000 0.0000 -177096.6622 0.0000 -177096.6622 -177096.6622 0.0000 16886.1731 -4654.1798 534946.2959 16886.1731 -4654.1798
ENERGY: 900 162.6034 650.5807 2816.4026 0.0000 -204306.2213 23127.2620 56.5645 0.0000 0.0000 -177492.8081 0.0000 -177492.8081 -177492.8081 0.0000 17023.9203 -4595.8769 534946.2959 17023.9203 -4595.8769
TCL: Setting parameter constraintScaling to 0.01953125
TCL: Minimizing for 100 steps
ETITLE: TS BOND ANGLE DIHED IMPRP ELECT VDW BOUNDARY MISC KINETIC TOTAL TEMP POTENTIAL TOTAL3 TEMPAVG PRESSURE GPRESSURE VOLUME PRESSAVG GPRESSAVG
ENERGY: 900 162.6034 650.5807 2816.4026 0.0000 -204306.2213 23127.2620 28.2823 0.0000 0.0000 -177521.0904 0.0000 -177521.0904 -177521.0904 0.0000 17047.1898 -27269.8664 534946.2959 17047.1898 -27269.8664
ENERGY: 920 239.9795 662.3916 2816.6612 0.0000 -204673.4188 23296.2784 29.4904 0.0000 0.0000 -177628.6176 0.0000 -177628.6176 -177628.6176 0.0000 17121.8709 -4541.5571 534946.2959 17121.8709 -4541.5571
ENERGY: 940 216.9278 667.6377 2815.4505 0.0000 -204747.4620 23318.1323 29.7085 0.0000 0.0000 -177699.6051 0.0000 -177699.6051 -177699.6051 0.0000 17126.3683 -4539.2613 534946.2959 17126.3683 -4539.2613
ENERGY: 960 167.3232 650.5064 2814.0658 0.0000 -204994.2009 23419.2214 30.3541 0.0000 0.0000 -177912.7300 0.0000 -177912.7300 -177912.7300 0.0000 17202.6514 -4498.4412 534946.2959 17202.6514 -4498.4412
ENERGY: 980 166.0241 655.3056 2808.6878 0.0000 -205678.5142 23729.6348 32.7668 0.0000 0.0000 -178286.0950 0.0000 -178286.0950 -178286.0950 0.0000 17357.8557 -4423.8339 534946.2959 17357.8557 -4423.8339
ENERGY: 1000 170.5095 654.5817 2805.4896 0.0000 -206547.8342 24188.1364 36.0900 0.0000 0.0000 -178693.0271 0.0000 -178693.0271 -178693.0271 0.0000 17591.0389 -4289.1366 534946.2959 17591.0389 -4289.1366
TCL: Setting parameter constraintScaling to 0
TCL: Minimizing for 5000 steps
ETITLE: TS BOND ANGLE DIHED IMPRP ELECT VDW BOUNDARY MISC KINETIC TOTAL TEMP POTENTIAL TOTAL3 TEMPAVG PRESSURE GPRESSURE VOLUME PRESSAVG GPRESSAVG
ENERGY: 1000 170.5095 654.5817 2805.4896 0.0000 -206547.8342 24188.1364 0.0000 0.0000 0.0000 -178729.1171 0.0000 -178729.1171 -178729.1171 0.0000 17618.2814 -27230.9642 534946.2959 17618.2814 -27230.9642
ENERGY: 2000 168.7822 664.5382 2806.6830 0.0000 -214683.0775 27950.2160 0.0000 0.0000 0.0000 -183092.8580 0.0000 -183092.8580 -183092.8580 0.0000 19649.7135 -3140.1840 534946.2959 19649.7135 -3140.1840
ENERGY: 3000 166.0662 664.6015 2799.2056 0.0000 -217609.0989 28948.7595 0.0000 0.0000 0.0000 -185030.4661 0.0000 -185030.4661 -185030.4661 0.0000 20157.7705 -2934.2798 534946.2959 20157.7705 -2934.2798
ENERGY: 4000 165.3769 661.7478 2790.5737 0.0000 -218840.8149 29470.8677 0.0000 0.0000 0.0000 -185752.2488 0.0000 -185752.2488 -185752.2488 0.0000 20434.6927 -2785.5973 534946.2959 20434.6927 -2785.5973
ENERGY: 5000 165.4325 663.4149 2788.4974 0.0000 -219534.0887 29717.8980 0.0000 0.0000 0.0000 -186198.8459 0.0000 -186198.8459 -186198.8459 0.0000 20559.0017 -2740.1682 534946.2959 20559.0017 -2740.1682
ENERGY: 6000 165.1823 663.6814 2784.8208 0.0000 -219952.9152 29885.7794 0.0000 0.0000 0.0000 -186453.4513 0.0000 -186453.4513 -186453.4513 0.0000 20644.6534 -2699.8804 534946.2959 20644.6534 -2699.8804
